
*** ChampSim Multicore Out-of-Order Simulator ***

Warmup Instructions: 50000000
Simulation Instructions: 100000000
Number of CPUs: 2
LLC sets: 4096
LLC ways: 16
Off-chip DRAM Size: 4096 MB Channels: 1 Width: 64-bit Data Rate: 3200 MT/s

CPU 0 runs /home/pratap/Templates/champsim_msa/dpc3_traces/hmmer_546B.trace.xz
CPU 1 runs /home/pratap/Templates/champsim_msa/dpc3_traces/mcf_158B.trace.xz
CPU 0 Bimodal branch predictor
CPU 1 Bimodal branch predictor
Initialize Hawkeye replacement policy state
Finished initializing Hawkeye replacement policy state
Heartbeat CPU 1 instructions: 10000002 cycles: 4722419 heartbeat IPC: 2.11756 cumulative IPC: 2.11756 (Simulation time: 0 hr 2 min 53 sec) 
Heartbeat CPU 0 instructions: 10000000 cycles: 4737279 heartbeat IPC: 2.11092 cumulative IPC: 2.11092 (Simulation time: 0 hr 2 min 54 sec) 
Heartbeat CPU 1 instructions: 20000000 cycles: 9408387 heartbeat IPC: 2.13403 cumulative IPC: 2.12576 (Simulation time: 0 hr 5 min 35 sec) 
Heartbeat CPU 0 instructions: 20000002 cycles: 9473874 heartbeat IPC: 2.11122 cumulative IPC: 2.11107 (Simulation time: 0 hr 5 min 37 sec) 
Heartbeat CPU 1 instructions: 30000001 cycles: 14035300 heartbeat IPC: 2.16127 cumulative IPC: 2.13747 (Simulation time: 0 hr 8 min 18 sec) 
Heartbeat CPU 0 instructions: 30000001 cycles: 14209589 heartbeat IPC: 2.11161 cumulative IPC: 2.11125 (Simulation time: 0 hr 8 min 25 sec) 
Heartbeat CPU 1 instructions: 40000001 cycles: 18636418 heartbeat IPC: 2.17338 cumulative IPC: 2.14634 (Simulation time: 0 hr 11 min 5 sec) 
Heartbeat CPU 0 instructions: 40000000 cycles: 18946154 heartbeat IPC: 2.11123 cumulative IPC: 2.11125 (Simulation time: 0 hr 11 min 15 sec) 
Heartbeat CPU 1 instructions: 50000002 cycles: 23111416 heartbeat IPC: 2.23464 cumulative IPC: 2.16343 (Simulation time: 0 hr 13 min 38 sec) 
Heartbeat CPU 0 instructions: 50000002 cycles: 23684457 heartbeat IPC: 2.11046 cumulative IPC: 2.11109 (Simulation time: 0 hr 13 min 50 sec) 

Warmup complete CPU 0 instructions: 50000002 cycles: 23684457 (Simulation time: 0 hr 13 min 50 sec) 
Warmup complete CPU 1 instructions: 50729771 cycles: 23684456 (Simulation time: 0 hr 13 min 50 sec) 

Heartbeat CPU 0 instructions: 60000001 cycles: 29259168 heartbeat IPC: 1.79381 cumulative IPC: 1.79381 (Simulation time: 0 hr 15 min 3 sec) 
Heartbeat CPU 0 instructions: 70000003 cycles: 34735896 heartbeat IPC: 1.82591 cumulative IPC: 1.80972 (Simulation time: 0 hr 16 min 12 sec) 
Heartbeat CPU 0 instructions: 80000000 cycles: 40199531 heartbeat IPC: 1.83028 cumulative IPC: 1.81652 (Simulation time: 0 hr 17 min 20 sec) 
Heartbeat CPU 0 instructions: 90000002 cycles: 45687405 heartbeat IPC: 1.8222 cumulative IPC: 1.81794 (Simulation time: 0 hr 18 min 29 sec) 
Heartbeat CPU 0 instructions: 100000001 cycles: 51141158 heartbeat IPC: 1.8336 cumulative IPC: 1.82105 (Simulation time: 0 hr 19 min 38 sec) 
Heartbeat CPU 0 instructions: 110000000 cycles: 57361344 heartbeat IPC: 1.60767 cumulative IPC: 1.78164 (Simulation time: 0 hr 20 min 53 sec) 
Heartbeat CPU 0 instructions: 120000001 cycles: 64063163 heartbeat IPC: 1.49213 cumulative IPC: 1.73359 (Simulation time: 0 hr 22 min 11 sec) 
Heartbeat CPU 0 instructions: 130000001 cycles: 70372765 heartbeat IPC: 1.58489 cumulative IPC: 1.71349 (Simulation time: 0 hr 23 min 26 sec) 
Heartbeat CPU 0 instructions: 140000002 cycles: 76410729 heartbeat IPC: 1.65619 cumulative IPC: 1.70693 (Simulation time: 0 hr 24 min 38 sec) 
Heartbeat CPU 0 instructions: 150000003 cycles: 83020483 heartbeat IPC: 1.51292 cumulative IPC: 1.68532 (Simulation time: 0 hr 25 min 48 sec) 
Finished CPU 0 instructions: 100000001 cycles: 59336026 cumulative IPC: 1.68532 (Simulation time: 0 hr 25 min 48 sec) 
Heartbeat CPU 0 instructions: 160000001 cycles: 89211998 heartbeat IPC: 1.61511 cumulative IPC: 1.67868 (Simulation time: 0 hr 26 min 46 sec) 
Heartbeat CPU 0 instructions: 170000000 cycles: 95337729 heartbeat IPC: 1.63246 cumulative IPC: 1.67473 (Simulation time: 0 hr 27 min 43 sec) 
Heartbeat CPU 0 instructions: 180000003 cycles: 101529624 heartbeat IPC: 1.61501 cumulative IPC: 1.66998 (Simulation time: 0 hr 28 min 43 sec) 
Heartbeat CPU 0 instructions: 190000001 cycles: 107641432 heartbeat IPC: 1.63618 cumulative IPC: 1.66752 (Simulation time: 0 hr 29 min 41 sec) 
Heartbeat CPU 0 instructions: 200000002 cycles: 113567194 heartbeat IPC: 1.68755 cumulative IPC: 1.66884 (Simulation time: 0 hr 30 min 42 sec) 
Heartbeat CPU 0 instructions: 210000001 cycles: 120118765 heartbeat IPC: 1.52635 cumulative IPC: 1.65916 (Simulation time: 0 hr 31 min 43 sec) 
Heartbeat CPU 0 instructions: 220000000 cycles: 126148583 heartbeat IPC: 1.65842 cumulative IPC: 1.65912 (Simulation time: 0 hr 32 min 39 sec) 
Heartbeat CPU 0 instructions: 230000000 cycles: 132710275 heartbeat IPC: 1.524 cumulative IPC: 1.65099 (Simulation time: 0 hr 33 min 37 sec) 
Heartbeat CPU 0 instructions: 240000001 cycles: 138838046 heartbeat IPC: 1.63191 cumulative IPC: 1.64997 (Simulation time: 0 hr 34 min 30 sec) 
Heartbeat CPU 0 instructions: 250000003 cycles: 145397567 heartbeat IPC: 1.5245 cumulative IPC: 1.64321 (Simulation time: 0 hr 35 min 24 sec) 
Heartbeat CPU 1 instructions: 60000000 cycles: 149826502 heartbeat IPC: 0.0789172 cumulative IPC: 0.0734904 (Simulation time: 0 hr 36 min 3 sec) 
Heartbeat CPU 0 instructions: 260000001 cycles: 151195664 heartbeat IPC: 1.7247 cumulative IPC: 1.64691 (Simulation time: 0 hr 36 min 15 sec) 
Heartbeat CPU 0 instructions: 270000000 cycles: 157203908 heartbeat IPC: 1.66438 cumulative IPC: 1.6477 (Simulation time: 0 hr 37 min 7 sec) 
Heartbeat CPU 0 instructions: 280000001 cycles: 163169951 heartbeat IPC: 1.67615 cumulative IPC: 1.64892 (Simulation time: 0 hr 38 min 0 sec) 
Heartbeat CPU 0 instructions: 290000000 cycles: 169478643 heartbeat IPC: 1.58511 cumulative IPC: 1.64616 (Simulation time: 0 hr 38 min 52 sec) 
Heartbeat CPU 0 instructions: 300000003 cycles: 175457270 heartbeat IPC: 1.67263 cumulative IPC: 1.6472 (Simulation time: 0 hr 39 min 42 sec) 
Heartbeat CPU 0 instructions: 310000002 cycles: 181503646 heartbeat IPC: 1.65388 cumulative IPC: 1.64745 (Simulation time: 0 hr 40 min 32 sec) 
Heartbeat CPU 0 instructions: 320000002 cycles: 187502339 heartbeat IPC: 1.66703 cumulative IPC: 1.64817 (Simulation time: 0 hr 41 min 23 sec) 
Heartbeat CPU 0 instructions: 330000000 cycles: 193566431 heartbeat IPC: 1.64905 cumulative IPC: 1.6482 (Simulation time: 0 hr 42 min 12 sec) 
Heartbeat CPU 0 instructions: 340000002 cycles: 199521625 heartbeat IPC: 1.67921 cumulative IPC: 1.64925 (Simulation time: 0 hr 42 min 58 sec) 
Heartbeat CPU 0 instructions: 350000001 cycles: 205437955 heartbeat IPC: 1.69024 cumulative IPC: 1.65059 (Simulation time: 0 hr 43 min 44 sec) 
Heartbeat CPU 0 instructions: 360000003 cycles: 211375925 heartbeat IPC: 1.68408 cumulative IPC: 1.65165 (Simulation time: 0 hr 44 min 29 sec) 
Heartbeat CPU 0 instructions: 370000000 cycles: 217272693 heartbeat IPC: 1.69584 cumulative IPC: 1.65299 (Simulation time: 0 hr 45 min 13 sec) 
Heartbeat CPU 0 instructions: 380000002 cycles: 223182243 heartbeat IPC: 1.69218 cumulative IPC: 1.65415 (Simulation time: 0 hr 45 min 59 sec) 
Heartbeat CPU 0 instructions: 390000002 cycles: 229154356 heartbeat IPC: 1.67445 cumulative IPC: 1.65474 (Simulation time: 0 hr 46 min 45 sec) 
Heartbeat CPU 0 instructions: 400000001 cycles: 235081122 heartbeat IPC: 1.68726 cumulative IPC: 1.65566 (Simulation time: 0 hr 47 min 32 sec) 
Heartbeat CPU 0 instructions: 410000002 cycles: 240963641 heartbeat IPC: 1.69995 cumulative IPC: 1.65685 (Simulation time: 0 hr 48 min 17 sec) 
Heartbeat CPU 0 instructions: 420000000 cycles: 246838761 heartbeat IPC: 1.70209 cumulative IPC: 1.65805 (Simulation time: 0 hr 48 min 59 sec) 
Heartbeat CPU 0 instructions: 430000000 cycles: 252704756 heartbeat IPC: 1.70474 cumulative IPC: 1.65924 (Simulation time: 0 hr 49 min 36 sec) 
Heartbeat CPU 0 instructions: 440000000 cycles: 258616313 heartbeat IPC: 1.6916 cumulative IPC: 1.66006 (Simulation time: 0 hr 50 min 10 sec) 
Heartbeat CPU 0 instructions: 450000000 cycles: 264625564 heartbeat IPC: 1.6641 cumulative IPC: 1.66016 (Simulation time: 0 hr 50 min 46 sec) 
Heartbeat CPU 0 instructions: 460000001 cycles: 270549953 heartbeat IPC: 1.68794 cumulative IPC: 1.66082 (Simulation time: 0 hr 51 min 26 sec) 
Heartbeat CPU 1 instructions: 70000001 cycles: 274929316 heartbeat IPC: 0.0799343 cumulative IPC: 0.076699 (Simulation time: 0 hr 51 min 55 sec) 
Heartbeat CPU 0 instructions: 470000000 cycles: 276486905 heartbeat IPC: 1.68437 cumulative IPC: 1.66138 (Simulation time: 0 hr 52 min 6 sec) 
Heartbeat CPU 0 instructions: 480000003 cycles: 282351824 heartbeat IPC: 1.70505 cumulative IPC: 1.66237 (Simulation time: 0 hr 52 min 38 sec) 
Heartbeat CPU 0 instructions: 490000002 cycles: 288207715 heartbeat IPC: 1.70768 cumulative IPC: 1.66337 (Simulation time: 0 hr 53 min 15 sec) 
Heartbeat CPU 0 instructions: 500000001 cycles: 294020042 heartbeat IPC: 1.72048 cumulative IPC: 1.6646 (Simulation time: 0 hr 53 min 52 sec) 
Heartbeat CPU 0 instructions: 510000000 cycles: 299912330 heartbeat IPC: 1.69713 cumulative IPC: 1.66529 (Simulation time: 0 hr 54 min 23 sec) 
Heartbeat CPU 0 instructions: 520000001 cycles: 305844690 heartbeat IPC: 1.68567 cumulative IPC: 1.66572 (Simulation time: 0 hr 55 min 1 sec) 
Heartbeat CPU 0 instructions: 530000003 cycles: 311502497 heartbeat IPC: 1.76747 cumulative IPC: 1.66772 (Simulation time: 0 hr 55 min 33 sec) 
Heartbeat CPU 0 instructions: 540000003 cycles: 317075510 heartbeat IPC: 1.79436 cumulative IPC: 1.67013 (Simulation time: 0 hr 56 min 4 sec) 
Heartbeat CPU 0 instructions: 550000000 cycles: 322645049 heartbeat IPC: 1.79548 cumulative IPC: 1.67246 (Simulation time: 0 hr 56 min 34 sec) 
Heartbeat CPU 0 instructions: 560000003 cycles: 328190032 heartbeat IPC: 1.80343 cumulative IPC: 1.67485 (Simulation time: 0 hr 57 min 3 sec) 
Heartbeat CPU 0 instructions: 570000003 cycles: 333728664 heartbeat IPC: 1.8055 cumulative IPC: 1.67718 (Simulation time: 0 hr 57 min 33 sec) 
Heartbeat CPU 0 instructions: 580000000 cycles: 339262199 heartbeat IPC: 1.80716 cumulative IPC: 1.67946 (Simulation time: 0 hr 58 min 2 sec) 
Heartbeat CPU 0 instructions: 590000002 cycles: 344794877 heartbeat IPC: 1.80744 cumulative IPC: 1.68166 (Simulation time: 0 hr 58 min 32 sec) 
Heartbeat CPU 0 instructions: 600000000 cycles: 350365543 heartbeat IPC: 1.79512 cumulative IPC: 1.6836 (Simulation time: 0 hr 59 min 3 sec) 
Heartbeat CPU 0 instructions: 610000000 cycles: 355915964 heartbeat IPC: 1.80167 cumulative IPC: 1.68557 (Simulation time: 0 hr 59 min 36 sec) 
Heartbeat CPU 0 instructions: 620000003 cycles: 361437357 heartbeat IPC: 1.81114 cumulative IPC: 1.68762 (Simulation time: 1 hr 0 min 6 sec) 
Heartbeat CPU 0 instructions: 630000000 cycles: 366991055 heartbeat IPC: 1.8006 cumulative IPC: 1.68945 (Simulation time: 1 hr 0 min 37 sec) 
Heartbeat CPU 0 instructions: 640000002 cycles: 372547240 heartbeat IPC: 1.7998 cumulative IPC: 1.69121 (Simulation time: 1 hr 1 min 6 sec) 
Heartbeat CPU 0 instructions: 650000001 cycles: 378113216 heartbeat IPC: 1.79663 cumulative IPC: 1.69286 (Simulation time: 1 hr 1 min 36 sec) 
Heartbeat CPU 0 instructions: 660000000 cycles: 383744812 heartbeat IPC: 1.7757 cumulative IPC: 1.69416 (Simulation time: 1 hr 2 min 6 sec) 
Heartbeat CPU 0 instructions: 670000000 cycles: 389389844 heartbeat IPC: 1.77147 cumulative IPC: 1.69535 (Simulation time: 1 hr 2 min 32 sec) 
Heartbeat CPU 0 instructions: 680000003 cycles: 395185293 heartbeat IPC: 1.72549 cumulative IPC: 1.69582 (Simulation time: 1 hr 2 min 59 sec) 
Heartbeat CPU 1 instructions: 80000000 cycles: 399930697 heartbeat IPC: 0.0799991 cumulative IPC: 0.0777954 (Simulation time: 1 hr 3 min 25 sec) 
Heartbeat CPU 0 instructions: 690000002 cycles: 401176006 heartbeat IPC: 1.66925 cumulative IPC: 1.6954 (Simulation time: 1 hr 3 min 33 sec) 
Heartbeat CPU 0 instructions: 700000001 cycles: 406979397 heartbeat IPC: 1.72313 cumulative IPC: 1.69582 (Simulation time: 1 hr 4 min 6 sec) 
Heartbeat CPU 0 instructions: 710000003 cycles: 412732263 heartbeat IPC: 1.73826 cumulative IPC: 1.69645 (Simulation time: 1 hr 4 min 34 sec) 
Heartbeat CPU 0 instructions: 720000002 cycles: 418393355 heartbeat IPC: 1.76644 cumulative IPC: 1.69745 (Simulation time: 1 hr 5 min 3 sec) 
Heartbeat CPU 0 instructions: 730000000 cycles: 424051955 heartbeat IPC: 1.76722 cumulative IPC: 1.69844 (Simulation time: 1 hr 5 min 32 sec) 
Heartbeat CPU 0 instructions: 740000000 cycles: 429736422 heartbeat IPC: 1.75918 cumulative IPC: 1.69929 (Simulation time: 1 hr 6 min 3 sec) 
Heartbeat CPU 0 instructions: 750000003 cycles: 435410351 heartbeat IPC: 1.76245 cumulative IPC: 1.70016 (Simulation time: 1 hr 6 min 33 sec) 
Heartbeat CPU 0 instructions: 760000001 cycles: 441045781 heartbeat IPC: 1.77449 cumulative IPC: 1.70116 (Simulation time: 1 hr 7 min 2 sec) 
Heartbeat CPU 0 instructions: 770000000 cycles: 446679636 heartbeat IPC: 1.77498 cumulative IPC: 1.70215 (Simulation time: 1 hr 7 min 33 sec) 
Heartbeat CPU 0 instructions: 780000000 cycles: 452703291 heartbeat IPC: 1.66012 cumulative IPC: 1.70156 (Simulation time: 1 hr 8 min 1 sec) 
Heartbeat CPU 0 instructions: 790000001 cycles: 458633315 heartbeat IPC: 1.68633 cumulative IPC: 1.70135 (Simulation time: 1 hr 8 min 27 sec) 
Heartbeat CPU 0 instructions: 800000000 cycles: 464287540 heartbeat IPC: 1.76859 cumulative IPC: 1.70221 (Simulation time: 1 hr 8 min 52 sec) 
Heartbeat CPU 0 instructions: 810000000 cycles: 470680955 heartbeat IPC: 1.56411 cumulative IPC: 1.70024 (Simulation time: 1 hr 9 min 18 sec) 
Heartbeat CPU 0 instructions: 820000002 cycles: 476684932 heartbeat IPC: 1.66556 cumulative IPC: 1.69978 (Simulation time: 1 hr 9 min 43 sec) 
Heartbeat CPU 0 instructions: 830000001 cycles: 482757189 heartbeat IPC: 1.64683 cumulative IPC: 1.69908 (Simulation time: 1 hr 10 min 8 sec) 
Heartbeat CPU 0 instructions: 840000001 cycles: 488854961 heartbeat IPC: 1.63994 cumulative IPC: 1.6983 (Simulation time: 1 hr 10 min 33 sec) 
Heartbeat CPU 0 instructions: 850000001 cycles: 495199046 heartbeat IPC: 1.57627 cumulative IPC: 1.69666 (Simulation time: 1 hr 10 min 59 sec) 
Heartbeat CPU 0 instructions: 860000000 cycles: 502325443 heartbeat IPC: 1.40323 cumulative IPC: 1.69229 (Simulation time: 1 hr 11 min 26 sec) 
Heartbeat CPU 0 instructions: 870000001 cycles: 508420839 heartbeat IPC: 1.64058 cumulative IPC: 1.69164 (Simulation time: 1 hr 11 min 52 sec) 
Heartbeat CPU 0 instructions: 880000000 cycles: 515023140 heartbeat IPC: 1.51462 cumulative IPC: 1.68926 (Simulation time: 1 hr 12 min 18 sec) 
Heartbeat CPU 0 instructions: 890000000 cycles: 520763321 heartbeat IPC: 1.74211 cumulative IPC: 1.68987 (Simulation time: 1 hr 12 min 43 sec) 
Heartbeat CPU 0 instructions: 900000002 cycles: 526566685 heartbeat IPC: 1.72314 cumulative IPC: 1.69026 (Simulation time: 1 hr 13 min 7 sec) 
Heartbeat CPU 1 instructions: 90000003 cycles: 531528837 heartbeat IPC: 0.0759889 cumulative IPC: 0.0773273 (Simulation time: 1 hr 13 min 29 sec) 
Heartbeat CPU 0 instructions: 910000001 cycles: 532061598 heartbeat IPC: 1.81986 cumulative IPC: 1.69166 (Simulation time: 1 hr 13 min 31 sec) 
Heartbeat CPU 0 instructions: 920000001 cycles: 537612248 heartbeat IPC: 1.80159 cumulative IPC: 1.69284 (Simulation time: 1 hr 13 min 55 sec) 
Heartbeat CPU 0 instructions: 930000002 cycles: 543677384 heartbeat IPC: 1.64877 cumulative IPC: 1.69233 (Simulation time: 1 hr 14 min 21 sec) 
Heartbeat CPU 0 instructions: 940000003 cycles: 550410228 heartbeat IPC: 1.48526 cumulative IPC: 1.68968 (Simulation time: 1 hr 14 min 47 sec) 
Heartbeat CPU 0 instructions: 950000003 cycles: 556439977 heartbeat IPC: 1.65844 cumulative IPC: 1.68933 (Simulation time: 1 hr 15 min 11 sec) 
Heartbeat CPU 0 instructions: 960000001 cycles: 562985859 heartbeat IPC: 1.52768 cumulative IPC: 1.68737 (Simulation time: 1 hr 15 min 35 sec) 
Heartbeat CPU 0 instructions: 970000003 cycles: 569321701 heartbeat IPC: 1.57832 cumulative IPC: 1.6861 (Simulation time: 1 hr 15 min 59 sec) 
Heartbeat CPU 0 instructions: 980000000 cycles: 575409659 heartbeat IPC: 1.64259 cumulative IPC: 1.68562 (Simulation time: 1 hr 16 min 22 sec) 
Heartbeat CPU 0 instructions: 990000000 cycles: 581444383 heartbeat IPC: 1.65708 cumulative IPC: 1.68531 (Simulation time: 1 hr 16 min 44 sec) 
*** Reached end of trace for Core: 0 Repeating trace: /home/pratap/Templates/champsim_msa/dpc3_traces/hmmer_546B.trace.xz
Heartbeat CPU 0 instructions: 1000000002 cycles: 587562291 heartbeat IPC: 1.63455 cumulative IPC: 1.68476 (Simulation time: 1 hr 17 min 7 sec) 
Heartbeat CPU 0 instructions: 1010000000 cycles: 593388663 heartbeat IPC: 1.71633 cumulative IPC: 1.68508 (Simulation time: 1 hr 17 min 31 sec) 
Heartbeat CPU 0 instructions: 1020000002 cycles: 598904160 heartbeat IPC: 1.81307 cumulative IPC: 1.68631 (Simulation time: 1 hr 17 min 54 sec) 
Heartbeat CPU 0 instructions: 1030000003 cycles: 604430010 heartbeat IPC: 1.80968 cumulative IPC: 1.68749 (Simulation time: 1 hr 18 min 16 sec) 
Heartbeat CPU 0 instructions: 1040000000 cycles: 609975954 heartbeat IPC: 1.80312 cumulative IPC: 1.68858 (Simulation time: 1 hr 18 min 38 sec) 
Heartbeat CPU 0 instructions: 1050000001 cycles: 615499863 heartbeat IPC: 1.81031 cumulative IPC: 1.68972 (Simulation time: 1 hr 18 min 59 sec) 
Heartbeat CPU 0 instructions: 1060000001 cycles: 621004303 heartbeat IPC: 1.81672 cumulative IPC: 1.69089 (Simulation time: 1 hr 19 min 21 sec) 
Heartbeat CPU 0 instructions: 1070000000 cycles: 626526463 heartbeat IPC: 1.81089 cumulative IPC: 1.69199 (Simulation time: 1 hr 19 min 43 sec) 
Heartbeat CPU 0 instructions: 1080000003 cycles: 632020115 heartbeat IPC: 1.82028 cumulative IPC: 1.69314 (Simulation time: 1 hr 20 min 5 sec) 
Heartbeat CPU 0 instructions: 1090000000 cycles: 637540724 heartbeat IPC: 1.81139 cumulative IPC: 1.69421 (Simulation time: 1 hr 20 min 28 sec) 
Heartbeat CPU 0 instructions: 1100000000 cycles: 643042953 heartbeat IPC: 1.81745 cumulative IPC: 1.6953 (Simulation time: 1 hr 20 min 50 sec) 
Heartbeat CPU 0 instructions: 1110000001 cycles: 648844486 heartbeat IPC: 1.72368 cumulative IPC: 1.69557 (Simulation time: 1 hr 21 min 14 sec) 
Heartbeat CPU 0 instructions: 1120000001 cycles: 655257550 heartbeat IPC: 1.55932 cumulative IPC: 1.69418 (Simulation time: 1 hr 21 min 38 sec) 
Heartbeat CPU 0 instructions: 1130000003 cycles: 661291689 heartbeat IPC: 1.65724 cumulative IPC: 1.69383 (Simulation time: 1 hr 22 min 1 sec) 
Heartbeat CPU 1 instructions: 100000002 cycles: 664578164 heartbeat IPC: 0.0751601 cumulative IPC: 0.0768774 (Simulation time: 1 hr 22 min 13 sec) 
Heartbeat CPU 0 instructions: 1140000001 cycles: 667242774 heartbeat IPC: 1.68037 cumulative IPC: 1.69371 (Simulation time: 1 hr 22 min 24 sec) 
Heartbeat CPU 0 instructions: 1150000003 cycles: 673453289 heartbeat IPC: 1.61017 cumulative IPC: 1.69291 (Simulation time: 1 hr 22 min 48 sec) 
Heartbeat CPU 0 instructions: 1160000002 cycles: 679769541 heartbeat IPC: 1.58322 cumulative IPC: 1.69185 (Simulation time: 1 hr 23 min 11 sec) 
Heartbeat CPU 0 instructions: 1170000001 cycles: 685814846 heartbeat IPC: 1.65418 cumulative IPC: 1.69151 (Simulation time: 1 hr 23 min 35 sec) 
Heartbeat CPU 0 instructions: 1180000003 cycles: 691781309 heartbeat IPC: 1.67604 cumulative IPC: 1.69137 (Simulation time: 1 hr 23 min 59 sec) 
Heartbeat CPU 0 instructions: 1190000002 cycles: 697735451 heartbeat IPC: 1.6795 cumulative IPC: 1.69127 (Simulation time: 1 hr 24 min 22 sec) 
Heartbeat CPU 0 instructions: 1200000002 cycles: 703690653 heartbeat IPC: 1.6792 cumulative IPC: 1.69116 (Simulation time: 1 hr 24 min 45 sec) 
Heartbeat CPU 0 instructions: 1210000000 cycles: 710268975 heartbeat IPC: 1.52014 cumulative IPC: 1.68952 (Simulation time: 1 hr 25 min 8 sec) 
Heartbeat CPU 0 instructions: 1220000003 cycles: 716258826 heartbeat IPC: 1.66949 cumulative IPC: 1.68935 (Simulation time: 1 hr 25 min 30 sec) 
Heartbeat CPU 0 instructions: 1230000001 cycles: 722806621 heartbeat IPC: 1.52723 cumulative IPC: 1.68783 (Simulation time: 1 hr 25 min 54 sec) 
Heartbeat CPU 0 instructions: 1240000000 cycles: 728997470 heartbeat IPC: 1.61529 cumulative IPC: 1.68719 (Simulation time: 1 hr 26 min 18 sec) 
Heartbeat CPU 0 instructions: 1250000003 cycles: 735432990 heartbeat IPC: 1.55388 cumulative IPC: 1.68599 (Simulation time: 1 hr 26 min 42 sec) 
Heartbeat CPU 0 instructions: 1260000001 cycles: 741082089 heartbeat IPC: 1.77019 cumulative IPC: 1.68665 (Simulation time: 1 hr 27 min 4 sec) 
Heartbeat CPU 0 instructions: 1270000003 cycles: 746851436 heartbeat IPC: 1.7333 cumulative IPC: 1.68702 (Simulation time: 1 hr 27 min 27 sec) 
Heartbeat CPU 0 instructions: 1280000001 cycles: 752693237 heartbeat IPC: 1.7118 cumulative IPC: 1.68722 (Simulation time: 1 hr 27 min 51 sec) 
Heartbeat CPU 0 instructions: 1290000000 cycles: 759052369 heartbeat IPC: 1.57254 cumulative IPC: 1.68623 (Simulation time: 1 hr 28 min 14 sec) 
Heartbeat CPU 0 instructions: 1300000003 cycles: 765057744 heartbeat IPC: 1.66518 cumulative IPC: 1.68606 (Simulation time: 1 hr 28 min 37 sec) 
Heartbeat CPU 0 instructions: 1310000001 cycles: 771145977 heartbeat IPC: 1.64251 cumulative IPC: 1.68571 (Simulation time: 1 hr 28 min 59 sec) 
Heartbeat CPU 0 instructions: 1320000000 cycles: 777114177 heartbeat IPC: 1.67555 cumulative IPC: 1.68563 (Simulation time: 1 hr 29 min 22 sec) 
Heartbeat CPU 0 instructions: 1330000002 cycles: 783201968 heartbeat IPC: 1.64263 cumulative IPC: 1.68528 (Simulation time: 1 hr 29 min 45 sec) 
Heartbeat CPU 0 instructions: 1340000002 cycles: 789193431 heartbeat IPC: 1.66904 cumulative IPC: 1.68515 (Simulation time: 1 hr 30 min 8 sec) 
Heartbeat CPU 0 instructions: 1350000000 cycles: 795170339 heartbeat IPC: 1.67311 cumulative IPC: 1.68506 (Simulation time: 1 hr 30 min 31 sec) 
Heartbeat CPU 1 instructions: 110000000 cycles: 799756968 heartbeat IPC: 0.0739761 cumulative IPC: 0.076372 (Simulation time: 1 hr 30 min 48 sec) 
Heartbeat CPU 0 instructions: 1360000003 cycles: 801089876 heartbeat IPC: 1.68932 cumulative IPC: 1.68509 (Simulation time: 1 hr 30 min 53 sec) 
Heartbeat CPU 0 instructions: 1370000001 cycles: 807019417 heartbeat IPC: 1.68647 cumulative IPC: 1.6851 (Simulation time: 1 hr 31 min 16 sec) 
Heartbeat CPU 0 instructions: 1380000001 cycles: 812989043 heartbeat IPC: 1.67515 cumulative IPC: 1.68503 (Simulation time: 1 hr 31 min 37 sec) 
Heartbeat CPU 0 instructions: 1390000000 cycles: 819012480 heartbeat IPC: 1.66018 cumulative IPC: 1.68484 (Simulation time: 1 hr 31 min 59 sec) 
Heartbeat CPU 0 instructions: 1400000002 cycles: 824996724 heartbeat IPC: 1.67106 cumulative IPC: 1.68474 (Simulation time: 1 hr 32 min 21 sec) 
Heartbeat CPU 0 instructions: 1410000000 cycles: 831018918 heartbeat IPC: 1.66052 cumulative IPC: 1.68456 (Simulation time: 1 hr 32 min 44 sec) 
Heartbeat CPU 0 instructions: 1420000003 cycles: 837012641 heartbeat IPC: 1.66841 cumulative IPC: 1.68444 (Simulation time: 1 hr 33 min 7 sec) 
Heartbeat CPU 0 instructions: 1430000000 cycles: 842919920 heartbeat IPC: 1.69283 cumulative IPC: 1.6845 (Simulation time: 1 hr 33 min 29 sec) 
Heartbeat CPU 0 instructions: 1440000000 cycles: 848827183 heartbeat IPC: 1.69283 cumulative IPC: 1.68456 (Simulation time: 1 hr 33 min 52 sec) 
Heartbeat CPU 0 instructions: 1450000001 cycles: 854833907 heartbeat IPC: 1.6648 cumulative IPC: 1.68441 (Simulation time: 1 hr 34 min 15 sec) 
Heartbeat CPU 0 instructions: 1460000000 cycles: 860747000 heartbeat IPC: 1.69116 cumulative IPC: 1.68446 (Simulation time: 1 hr 34 min 38 sec) 
Heartbeat CPU 0 instructions: 1470000001 cycles: 866735705 heartbeat IPC: 1.66981 cumulative IPC: 1.68436 (Simulation time: 1 hr 34 min 59 sec) 
Heartbeat CPU 0 instructions: 1480000002 cycles: 872714515 heartbeat IPC: 1.67257 cumulative IPC: 1.68427 (Simulation time: 1 hr 35 min 21 sec) 
Heartbeat CPU 0 instructions: 1490000002 cycles: 878702522 heartbeat IPC: 1.67 cumulative IPC: 1.68417 (Simulation time: 1 hr 35 min 44 sec) 
Heartbeat CPU 0 instructions: 1500000001 cycles: 884663817 heartbeat IPC: 1.67749 cumulative IPC: 1.68413 (Simulation time: 1 hr 36 min 7 sec) 
Heartbeat CPU 0 instructions: 1510000000 cycles: 890651827 heartbeat IPC: 1.67 cumulative IPC: 1.68403 (Simulation time: 1 hr 36 min 29 sec) 
Heartbeat CPU 0 instructions: 1520000003 cycles: 896588451 heartbeat IPC: 1.68446 cumulative IPC: 1.68403 (Simulation time: 1 hr 36 min 52 sec) 
Heartbeat CPU 0 instructions: 1530000003 cycles: 902456495 heartbeat IPC: 1.70415 cumulative IPC: 1.68417 (Simulation time: 1 hr 37 min 15 sec) 
Heartbeat CPU 0 instructions: 1540000000 cycles: 908306889 heartbeat IPC: 1.70929 cumulative IPC: 1.68433 (Simulation time: 1 hr 37 min 37 sec) 
Heartbeat CPU 0 instructions: 1550000000 cycles: 914162718 heartbeat IPC: 1.7077 cumulative IPC: 1.68449 (Simulation time: 1 hr 37 min 59 sec) 
Heartbeat CPU 0 instructions: 1560000003 cycles: 919994118 heartbeat IPC: 1.71485 cumulative IPC: 1.68469 (Simulation time: 1 hr 38 min 23 sec) 
Heartbeat CPU 0 instructions: 1570000003 cycles: 925823443 heartbeat IPC: 1.71546 cumulative IPC: 1.68488 (Simulation time: 1 hr 38 min 46 sec) 
Heartbeat CPU 0 instructions: 1580000002 cycles: 931743130 heartbeat IPC: 1.68928 cumulative IPC: 1.68491 (Simulation time: 1 hr 39 min 8 sec) 
Heartbeat CPU 0 instructions: 1590000001 cycles: 937644439 heartbeat IPC: 1.69454 cumulative IPC: 1.68498 (Simulation time: 1 hr 39 min 30 sec) 
Heartbeat CPU 0 instructions: 1600000000 cycles: 943597041 heartbeat IPC: 1.67994 cumulative IPC: 1.68494 (Simulation time: 1 hr 39 min 52 sec) 
Heartbeat CPU 1 instructions: 120000000 cycles: 946196279 heartbeat IPC: 0.0682877 cumulative IPC: 0.0750887 (Simulation time: 1 hr 40 min 3 sec) 
Heartbeat CPU 0 instructions: 1610000001 cycles: 949534321 heartbeat IPC: 1.68427 cumulative IPC: 1.68494 (Simulation time: 1 hr 40 min 16 sec) 
Heartbeat CPU 0 instructions: 1620000002 cycles: 955401783 heartbeat IPC: 1.70431 cumulative IPC: 1.68506 (Simulation time: 1 hr 40 min 40 sec) 
Heartbeat CPU 0 instructions: 1630000003 cycles: 961270638 heartbeat IPC: 1.70391 cumulative IPC: 1.68518 (Simulation time: 1 hr 41 min 4 sec) 
Heartbeat CPU 0 instructions: 1640000002 cycles: 967102126 heartbeat IPC: 1.71483 cumulative IPC: 1.68536 (Simulation time: 1 hr 41 min 28 sec) 
Heartbeat CPU 0 instructions: 1650000000 cycles: 972931986 heartbeat IPC: 1.71531 cumulative IPC: 1.68555 (Simulation time: 1 hr 41 min 50 sec) 
Heartbeat CPU 0 instructions: 1660000001 cycles: 978767755 heartbeat IPC: 1.71357 cumulative IPC: 1.68572 (Simulation time: 1 hr 42 min 13 sec) 
Heartbeat CPU 0 instructions: 1670000003 cycles: 984652219 heartbeat IPC: 1.69939 cumulative IPC: 1.6858 (Simulation time: 1 hr 42 min 35 sec) 
Heartbeat CPU 0 instructions: 1680000003 cycles: 990588068 heartbeat IPC: 1.68468 cumulative IPC: 1.68579 (Simulation time: 1 hr 42 min 57 sec) 
Heartbeat CPU 0 instructions: 1690000000 cycles: 996626340 heartbeat IPC: 1.6561 cumulative IPC: 1.68561 (Simulation time: 1 hr 43 min 19 sec) 
Heartbeat CPU 0 instructions: 1700000003 cycles: 1002586197 heartbeat IPC: 1.67789 cumulative IPC: 1.68556 (Simulation time: 1 hr 43 min 41 sec) 
Heartbeat CPU 0 instructions: 1710000002 cycles: 1008521238 heartbeat IPC: 1.68491 cumulative IPC: 1.68556 (Simulation time: 1 hr 44 min 3 sec) 
Heartbeat CPU 0 instructions: 1720000001 cycles: 1014396497 heartbeat IPC: 1.70205 cumulative IPC: 1.68566 (Simulation time: 1 hr 44 min 26 sec) 
Heartbeat CPU 0 instructions: 1730000001 cycles: 1020236926 heartbeat IPC: 1.7122 cumulative IPC: 1.68581 (Simulation time: 1 hr 44 min 49 sec) 
Heartbeat CPU 0 instructions: 1740000002 cycles: 1026115149 heartbeat IPC: 1.70119 cumulative IPC: 1.6859 (Simulation time: 1 hr 45 min 11 sec) 
Heartbeat CPU 0 instructions: 1750000003 cycles: 1031956764 heartbeat IPC: 1.71186 cumulative IPC: 1.68605 (Simulation time: 1 hr 45 min 34 sec) 
Heartbeat CPU 0 instructions: 1760000000 cycles: 1037764263 heartbeat IPC: 1.72191 cumulative IPC: 1.68626 (Simulation time: 1 hr 45 min 57 sec) 
Heartbeat CPU 0 instructions: 1770000002 cycles: 1043565853 heartbeat IPC: 1.72367 cumulative IPC: 1.68647 (Simulation time: 1 hr 46 min 19 sec) 
Heartbeat CPU 0 instructions: 1780000002 cycles: 1049572210 heartbeat IPC: 1.6649 cumulative IPC: 1.68634 (Simulation time: 1 hr 46 min 42 sec) 
Heartbeat CPU 0 instructions: 1790000002 cycles: 1055571713 heartbeat IPC: 1.6668 cumulative IPC: 1.68623 (Simulation time: 1 hr 47 min 4 sec) 
Heartbeat CPU 0 instructions: 1800000000 cycles: 1061406734 heartbeat IPC: 1.71379 cumulative IPC: 1.68639 (Simulation time: 1 hr 47 min 26 sec) 
Heartbeat CPU 0 instructions: 1810000002 cycles: 1067803732 heartbeat IPC: 1.56323 cumulative IPC: 1.68563 (Simulation time: 1 hr 47 min 50 sec) 
Heartbeat CPU 0 instructions: 1820000002 cycles: 1073969145 heartbeat IPC: 1.62195 cumulative IPC: 1.68526 (Simulation time: 1 hr 48 min 12 sec) 
Heartbeat CPU 0 instructions: 1830000001 cycles: 1080116823 heartbeat IPC: 1.62663 cumulative IPC: 1.68492 (Simulation time: 1 hr 48 min 35 sec) 
Heartbeat CPU 0 instructions: 1840000001 cycles: 1086193288 heartbeat IPC: 1.64569 cumulative IPC: 1.68469 (Simulation time: 1 hr 48 min 58 sec) 
Heartbeat CPU 1 instructions: 130000000 cycles: 1087979369 heartbeat IPC: 0.0705303 cumulative IPC: 0.0744815 (Simulation time: 1 hr 49 min 5 sec) 
Heartbeat CPU 0 instructions: 1850000002 cycles: 1092364867 heartbeat IPC: 1.62033 cumulative IPC: 1.68432 (Simulation time: 1 hr 49 min 22 sec) 
Heartbeat CPU 0 instructions: 1860000003 cycles: 1099417721 heartbeat IPC: 1.41787 cumulative IPC: 1.68257 (Simulation time: 1 hr 49 min 47 sec) 
Heartbeat CPU 0 instructions: 1870000000 cycles: 1105507868 heartbeat IPC: 1.642 cumulative IPC: 1.68234 (Simulation time: 1 hr 50 min 9 sec) 
Heartbeat CPU 0 instructions: 1880000003 cycles: 1111952529 heartbeat IPC: 1.55167 cumulative IPC: 1.68157 (Simulation time: 1 hr 50 min 32 sec) 
Heartbeat CPU 0 instructions: 1890000000 cycles: 1117757486 heartbeat IPC: 1.72267 cumulative IPC: 1.68179 (Simulation time: 1 hr 50 min 53 sec) 
Heartbeat CPU 0 instructions: 1900000001 cycles: 1123499828 heartbeat IPC: 1.74145 cumulative IPC: 1.6821 (Simulation time: 1 hr 51 min 15 sec) 
Heartbeat CPU 0 instructions: 1910000001 cycles: 1129000210 heartbeat IPC: 1.81806 cumulative IPC: 1.68278 (Simulation time: 1 hr 51 min 36 sec) 
Heartbeat CPU 0 instructions: 1920000001 cycles: 1134550465 heartbeat IPC: 1.80172 cumulative IPC: 1.68337 (Simulation time: 1 hr 51 min 58 sec) 
Heartbeat CPU 0 instructions: 1930000002 cycles: 1140690892 heartbeat IPC: 1.62855 cumulative IPC: 1.68307 (Simulation time: 1 hr 52 min 21 sec) 
Heartbeat CPU 0 instructions: 1940000003 cycles: 1147556371 heartbeat IPC: 1.45656 cumulative IPC: 1.68169 (Simulation time: 1 hr 52 min 45 sec) 
Heartbeat CPU 0 instructions: 1950000002 cycles: 1153421915 heartbeat IPC: 1.70487 cumulative IPC: 1.68181 (Simulation time: 1 hr 53 min 8 sec) 
Heartbeat CPU 0 instructions: 1960000001 cycles: 1160010906 heartbeat IPC: 1.51768 cumulative IPC: 1.68086 (Simulation time: 1 hr 53 min 31 sec) 
Heartbeat CPU 0 instructions: 1970000002 cycles: 1166202575 heartbeat IPC: 1.61507 cumulative IPC: 1.6805 (Simulation time: 1 hr 53 min 53 sec) 
Heartbeat CPU 0 instructions: 1980000000 cycles: 1172365995 heartbeat IPC: 1.62248 cumulative IPC: 1.68019 (Simulation time: 1 hr 54 min 15 sec) 
Heartbeat CPU 0 instructions: 1990000003 cycles: 1178566741 heartbeat IPC: 1.61271 cumulative IPC: 1.67982 (Simulation time: 1 hr 54 min 37 sec) 
*** Reached end of trace for Core: 0 Repeating trace: /home/pratap/Templates/champsim_msa/dpc3_traces/hmmer_546B.trace.xz
Heartbeat CPU 0 instructions: 2000000002 cycles: 1184763878 heartbeat IPC: 1.61365 cumulative IPC: 1.67947 (Simulation time: 1 hr 55 min 0 sec) 
Heartbeat CPU 0 instructions: 2010000000 cycles: 1190787865 heartbeat IPC: 1.66003 cumulative IPC: 1.67937 (Simulation time: 1 hr 55 min 23 sec) 
Heartbeat CPU 0 instructions: 2020000000 cycles: 1196318809 heartbeat IPC: 1.80801 cumulative IPC: 1.67998 (Simulation time: 1 hr 55 min 44 sec) 
Heartbeat CPU 0 instructions: 2030000003 cycles: 1201843912 heartbeat IPC: 1.80992 cumulative IPC: 1.68059 (Simulation time: 1 hr 56 min 6 sec) 
Heartbeat CPU 0 instructions: 2040000003 cycles: 1207399892 heartbeat IPC: 1.79986 cumulative IPC: 1.68115 (Simulation time: 1 hr 56 min 27 sec) 
Heartbeat CPU 0 instructions: 2050000000 cycles: 1212936185 heartbeat IPC: 1.80626 cumulative IPC: 1.68173 (Simulation time: 1 hr 56 min 49 sec) 
Heartbeat CPU 0 instructions: 2060000003 cycles: 1218444896 heartbeat IPC: 1.81531 cumulative IPC: 1.68235 (Simulation time: 1 hr 57 min 10 sec) 
Heartbeat CPU 1 instructions: 140000000 cycles: 1221911020 heartbeat IPC: 0.074665 cumulative IPC: 0.074502 (Simulation time: 1 hr 57 min 23 sec) 
Heartbeat CPU 0 instructions: 2070000001 cycles: 1223962308 heartbeat IPC: 1.81244 cumulative IPC: 1.68294 (Simulation time: 1 hr 57 min 31 sec) 
Heartbeat CPU 0 instructions: 2080000002 cycles: 1229454136 heartbeat IPC: 1.82089 cumulative IPC: 1.68357 (Simulation time: 1 hr 57 min 52 sec) 
Heartbeat CPU 0 instructions: 2090000000 cycles: 1234972021 heartbeat IPC: 1.81229 cumulative IPC: 1.68416 (Simulation time: 1 hr 58 min 12 sec) 
Heartbeat CPU 0 instructions: 2100000002 cycles: 1240467801 heartbeat IPC: 1.81958 cumulative IPC: 1.68477 (Simulation time: 1 hr 58 min 33 sec) 
Heartbeat CPU 0 instructions: 2110000003 cycles: 1246427187 heartbeat IPC: 1.67803 cumulative IPC: 1.68474 (Simulation time: 1 hr 58 min 56 sec) 
Heartbeat CPU 0 instructions: 2120000003 cycles: 1253061140 heartbeat IPC: 1.5074 cumulative IPC: 1.68378 (Simulation time: 1 hr 59 min 19 sec) 
Heartbeat CPU 0 instructions: 2130000003 cycles: 1258990789 heartbeat IPC: 1.68644 cumulative IPC: 1.68379 (Simulation time: 1 hr 59 min 42 sec) 
Heartbeat CPU 0 instructions: 2140000000 cycles: 1264986333 heartbeat IPC: 1.6679 cumulative IPC: 1.68372 (Simulation time: 2 hr 0 min 5 sec) 
Heartbeat CPU 0 instructions: 2150000002 cycles: 1271105311 heartbeat IPC: 1.63426 cumulative IPC: 1.68347 (Simulation time: 2 hr 0 min 28 sec) 
Heartbeat CPU 0 instructions: 2160000000 cycles: 1277238003 heartbeat IPC: 1.6306 cumulative IPC: 1.68321 (Simulation time: 2 hr 0 min 50 sec) 
Heartbeat CPU 0 instructions: 2170000000 cycles: 1283294301 heartbeat IPC: 1.65117 cumulative IPC: 1.68306 (Simulation time: 2 hr 1 min 13 sec) 
Heartbeat CPU 0 instructions: 2180000001 cycles: 1289368237 heartbeat IPC: 1.64638 cumulative IPC: 1.68288 (Simulation time: 2 hr 1 min 35 sec) 
Heartbeat CPU 0 instructions: 2190000000 cycles: 1295368645 heartbeat IPC: 1.66655 cumulative IPC: 1.68281 (Simulation time: 2 hr 1 min 56 sec) 
Heartbeat CPU 0 instructions: 2200000000 cycles: 1301413494 heartbeat IPC: 1.6543 cumulative IPC: 1.68267 (Simulation time: 2 hr 2 min 18 sec) 
Heartbeat CPU 0 instructions: 2210000000 cycles: 1308052643 heartbeat IPC: 1.50622 cumulative IPC: 1.68176 (Simulation time: 2 hr 2 min 41 sec) 
Heartbeat CPU 0 instructions: 2220000003 cycles: 1314130529 heartbeat IPC: 1.64531 cumulative IPC: 1.68159 (Simulation time: 2 hr 3 min 4 sec) 
Heartbeat CPU 0 instructions: 2230000001 cycles: 1320736576 heartbeat IPC: 1.51376 cumulative IPC: 1.68073 (Simulation time: 2 hr 3 min 28 sec) 
Heartbeat CPU 0 instructions: 2240000003 cycles: 1326852700 heartbeat IPC: 1.63502 cumulative IPC: 1.68052 (Simulation time: 2 hr 3 min 51 sec) 
Heartbeat CPU 0 instructions: 2250000003 cycles: 1333183275 heartbeat IPC: 1.57964 cumulative IPC: 1.68003 (Simulation time: 2 hr 4 min 14 sec) 
Heartbeat CPU 0 instructions: 2260000003 cycles: 1338883410 heartbeat IPC: 1.75434 cumulative IPC: 1.68035 (Simulation time: 2 hr 4 min 35 sec) 
Heartbeat CPU 0 instructions: 2270000000 cycles: 1344839706 heartbeat IPC: 1.6789 cumulative IPC: 1.68035 (Simulation time: 2 hr 4 min 57 sec) 
Heartbeat CPU 0 instructions: 2280000001 cycles: 1350921722 heartbeat IPC: 1.64419 cumulative IPC: 1.68018 (Simulation time: 2 hr 5 min 20 sec) 
Heartbeat CPU 0 instructions: 2290000003 cycles: 1357222439 heartbeat IPC: 1.58712 cumulative IPC: 1.67974 (Simulation time: 2 hr 5 min 42 sec) 
Heartbeat CPU 0 instructions: 2300000000 cycles: 1363296211 heartbeat IPC: 1.64642 cumulative IPC: 1.67959 (Simulation time: 2 hr 6 min 4 sec) 
Heartbeat CPU 0 instructions: 2310000000 cycles: 1369440380 heartbeat IPC: 1.62756 cumulative IPC: 1.67935 (Simulation time: 2 hr 6 min 26 sec) 
Heartbeat CPU 1 instructions: 150000001 cycles: 1370341595 heartbeat IPC: 0.0673716 cumulative IPC: 0.073716 (Simulation time: 2 hr 6 min 30 sec) 
Heartbeat CPU 0 instructions: 2320000000 cycles: 1375532394 heartbeat IPC: 1.64149 cumulative IPC: 1.67918 (Simulation time: 2 hr 6 min 49 sec) 
Finished CPU 1 instructions: 100000002 cycles: 1356295542 cumulative IPC: 0.0737302 (Simulation time: 2 hr 7 min 6 sec) 

ChampSim completed all CPUs

Total Simulation Statistics (not including warmup)

CPU 0 cumulative IPC: 1.67908 instructions: 2277321919 cycles: 1356295541
L1D TOTAL     ACCESS:  797142499  HIT:  786316276  MISS:   10826223
L1D LOAD      ACCESS:  669825892  HIT:  666026595  MISS:    3799297
L1D RFO       ACCESS:  127316607  HIT:  120289681  MISS:    7026926
L1D PREFETCH  ACCESS:          0  HIT:          0  MISS:          0
L1D WRITEBACK ACCESS:          0  HIT:          0  MISS:          0
L1I TOTAL     ACCESS:  374564895  HIT:  374559088  MISS:       5807
L1I LOAD      ACCESS:  374564895  HIT:  374559088  MISS:       5807
L1I RFO       ACCESS:          0  HIT:          0  MISS:          0
L1I PREFETCH  ACCESS:          0  HIT:          0  MISS:          0
L1I WRITEBACK ACCESS:          0  HIT:          0  MISS:          0
L2C TOTAL     ACCESS:   17881311  HIT:   11015435  MISS:    6865876
L2C LOAD      ACCESS:    3805099  HIT:    3528392  MISS:     276707
L2C RFO       ACCESS:    7026926  HIT:     438759  MISS:    6588167
L2C PREFETCH  ACCESS:          0  HIT:          0  MISS:          0
L2C WRITEBACK ACCESS:    7049286  HIT:    7048284  MISS:       1002
LLC TOTAL     ACCESS:   13495566  HIT:   10169557  MISS:    3326009
LLC LOAD      ACCESS:     276706  HIT:     201518  MISS:      75188
LLC RFO       ACCESS:    6588146  HIT:    4809749  MISS:    1778397
LLC PREFETCH  ACCESS:          0  HIT:          0  MISS:          0
LLC WRITEBACK ACCESS:    6630714  HIT:    5158290  MISS:    1472424

CPU 1 cumulative IPC: 0.0737302 instructions: 100000002 cycles: 1356295542
L1D TOTAL     ACCESS:   26523671  HIT:   13149628  MISS:   13374043
L1D LOAD      ACCESS:   22225248  HIT:    9061011  MISS:   13164237
L1D RFO       ACCESS:    4298423  HIT:    4088617  MISS:     209806
L1D PREFETCH  ACCESS:          0  HIT:          0  MISS:          0
L1D WRITEBACK ACCESS:          0  HIT:          0  MISS:          0
L1I TOTAL     ACCESS:   18594129  HIT:   18594128  MISS:          1
L1I LOAD      ACCESS:   18594129  HIT:   18594128  MISS:          1
L1I RFO       ACCESS:          0  HIT:          0  MISS:          0
L1I PREFETCH  ACCESS:          0  HIT:          0  MISS:          0
L1I WRITEBACK ACCESS:          0  HIT:          0  MISS:          0
L2C TOTAL     ACCESS:   15590018  HIT:    6122398  MISS:    9467620
L2C LOAD      ACCESS:   13163986  HIT:    3832185  MISS:    9331801
L2C RFO       ACCESS:     209797  HIT:      74070  MISS:     135727
L2C PREFETCH  ACCESS:          0  HIT:          0  MISS:          0
L2C WRITEBACK ACCESS:    2216235  HIT:    2216143  MISS:         92
LLC TOTAL     ACCESS:   11078722  HIT:    4174121  MISS:    6904601
LLC LOAD      ACCESS:    9331801  HIT:    3266832  MISS:    6064969
LLC RFO       ACCESS:     135727  HIT:      65130  MISS:      70597
LLC PREFETCH  ACCESS:          0  HIT:          0  MISS:          0
LLC WRITEBACK ACCESS:    1611194  HIT:     842159  MISS:     769035

Region of Interest Statistics

CPU 0 cumulative IPC: 1.68532 instructions: 100000001 cycles: 59336026
L1D TOTAL     ACCESS:   35151947  HIT:   34671484  MISS:     480463
L1D LOAD      ACCESS:   29469108  HIT:   29297894  MISS:     171214
L1D RFO       ACCESS:    5682839  HIT:    5373590  MISS:     309249
L1D PREFETCH  ACCESS:          0  HIT:          0  MISS:          0
L1D WRITEBACK ACCESS:          0  HIT:          0  MISS:          0
L1D PREFETCH  REQUESTED:          0  ISSUED:          0  USEFUL:          0  USELESS:          0
L1D AVERAGE MISS LATENCY: 1541.58 cycles
L1I TOTAL     ACCESS:   16403651  HIT:   16403292  MISS:        359
L1I LOAD      ACCESS:   16403651  HIT:   16403292  MISS:        359
L1I RFO       ACCESS:          0  HIT:          0  MISS:          0
L1I PREFETCH  ACCESS:          0  HIT:          0  MISS:          0
L1I WRITEBACK ACCESS:          0  HIT:          0  MISS:          0
L1I PREFETCH  REQUESTED:          0  ISSUED:          0  USEFUL:          0  USELESS:          0
L1I AVERAGE MISS LATENCY: 728.852 cycles
L2C TOTAL     ACCESS:     791250  HIT:     529519  MISS:     261731
L2C LOAD      ACCESS:     171573  HIT:     160654  MISS:      10919
L2C RFO       ACCESS:     309249  HIT:      58467  MISS:     250782
L2C PREFETCH  ACCESS:          0  HIT:          0  MISS:          0
L2C WRITEBACK ACCESS:     310428  HIT:     310398  MISS:         30
L2C PREFETCH  REQUESTED:          0  ISSUED:          0  USEFUL:          0  USELESS:          0
L2C AVERAGE MISS LATENCY: 2209.79 cycles
LLC TOTAL     ACCESS:     513761  HIT:     405264  MISS:     108497
LLC LOAD      ACCESS:      10919  HIT:       8824  MISS:       2095
LLC RFO       ACCESS:     250777  HIT:     176818  MISS:      73959
LLC PREFETCH  ACCESS:          0  HIT:          0  MISS:          0
LLC WRITEBACK ACCESS:     252065  HIT:     219622  MISS:      32443
LLC PREFETCH  REQUESTED:          0  ISSUED:          0  USEFUL:          0  USELESS:          0
LLC AVERAGE MISS LATENCY: 18458.5 cycles
Major fault: 0 Minor fault: 1209

CPU 1 cumulative IPC: 0.0737302 instructions: 100000002 cycles: 1356295542
L1D TOTAL     ACCESS:   26523671  HIT:   13149628  MISS:   13374043
L1D LOAD      ACCESS:   22225248  HIT:    9061011  MISS:   13164237
L1D RFO       ACCESS:    4298423  HIT:    4088617  MISS:     209806
L1D PREFETCH  ACCESS:          0  HIT:          0  MISS:          0
L1D WRITEBACK ACCESS:          0  HIT:          0  MISS:          0
L1D PREFETCH  REQUESTED:          0  ISSUED:          0  USEFUL:          0  USELESS:          0
L1D AVERAGE MISS LATENCY: 160.785 cycles
L1I TOTAL     ACCESS:   18594129  HIT:   18594128  MISS:          1
L1I LOAD      ACCESS:   18594129  HIT:   18594128  MISS:          1
L1I RFO       ACCESS:          0  HIT:          0  MISS:          0
L1I PREFETCH  ACCESS:          0  HIT:          0  MISS:          0
L1I WRITEBACK ACCESS:          0  HIT:          0  MISS:          0
L1I PREFETCH  REQUESTED:          0  ISSUED:          0  USEFUL:          0  USELESS:          0
L1I AVERAGE MISS LATENCY: 215 cycles
L2C TOTAL     ACCESS:   15590018  HIT:    6122398  MISS:    9467620
L2C LOAD      ACCESS:   13163986  HIT:    3832185  MISS:    9331801
L2C RFO       ACCESS:     209797  HIT:      74070  MISS:     135727
L2C PREFETCH  ACCESS:          0  HIT:          0  MISS:          0
L2C WRITEBACK ACCESS:    2216235  HIT:    2216143  MISS:         92
L2C PREFETCH  REQUESTED:          0  ISSUED:          0  USEFUL:          0  USELESS:          0
L2C AVERAGE MISS LATENCY: 203.408 cycles
LLC TOTAL     ACCESS:   11078722  HIT:    4174121  MISS:    6904601
LLC LOAD      ACCESS:    9331801  HIT:    3266832  MISS:    6064969
LLC RFO       ACCESS:     135727  HIT:      65130  MISS:      70597
LLC PREFETCH  ACCESS:          0  HIT:          0  MISS:          0
LLC WRITEBACK ACCESS:    1611194  HIT:     842159  MISS:     769035
LLC PREFETCH  REQUESTED:          0  ISSUED:          0  USEFUL:          0  USELESS:          0
LLC AVERAGE MISS LATENCY: 290.052 cycles
Major fault: 0 Minor fault: 92598
Final OPTGen-1 Hits: 31482
Final OPTGen-1 Access: 108519
Final OPTGEN-1 Hit Rate: 29.0106
Final OPTGen-2 Hits: 63137
Final OPTGen-2 Access: 239187
Final OPTGEN-2 Hit Rate: 26.3965
Partition size for 0 to 25M instruction : 4,12
Partition size for 25M to 50M instruction : 6,10
Partition size for 50M to 75M instruction : 8,8
Partition size for 75M to 100M instruction : 9,7

DRAM Statistics
 CHANNEL 0
 RQ ROW_BUFFER_HIT:     775421  ROW_BUFFER_MISS:    7212802
 DBUS_CONGESTED:    1596528
 WQ ROW_BUFFER_HIT:    1007416  ROW_BUFFER_MISS:    2025576  FULL:          0

 AVG_CONGESTED_CYCLE: 6

CPU 0 Branch Prediction Accuracy: 99.3137% MPKI: 0.263725 Average ROB Occupancy at Mispredict: 89.9777

Branch types
NOT_BRANCH: 2189807886 96.1572%
BRANCH_DIRECT_JUMP: 683107 0.0299961%
BRANCH_INDIRECT: 179703 0.00789098%
BRANCH_CONDITIONAL: 86289340 3.78907%
BRANCH_DIRECT_CALL: 180835 0.00794069%
BRANCH_INDIRECT_CALL: 74 3.24943e-06%
BRANCH_RETURN: 180909 0.00794394%
BRANCH_OTHER: 0 0%


CPU 1 Branch Prediction Accuracy: 87.1679% MPKI: 35.5165 Average ROB Occupancy at Mispredict: 16.5644

Branch types
NOT_BRANCH: 72120165 72.1202%
BRANCH_DIRECT_JUMP: 1555117 1.55512%
BRANCH_INDIRECT: 0 0%
BRANCH_CONDITIONAL: 26281679 26.2817%
BRANCH_DIRECT_CALL: 21515 0.021515%
BRANCH_INDIRECT_CALL: 0 0%
BRANCH_RETURN: 21515 0.021515%
BRANCH_OTHER: 0 0%

