
*** ChampSim Multicore Out-of-Order Simulator ***

Warmup Instructions: 50000000
Simulation Instructions: 100000000
Number of CPUs: 2
LLC sets: 4096
LLC ways: 16
Off-chip DRAM Size: 4096 MB Channels: 1 Width: 64-bit Data Rate: 3200 MT/s

CPU 0 runs /home/shivam/program/champsim_msa/dpc3_traces/hmmer_546B.trace.xz
CPU 1 runs /home/shivam/program/champsim_msa/dpc3_traces/gamess_247B.trace.xz
CPU 0 Bimodal branch predictor
CPU 1 Bimodal branch predictor
Initialize Hawkeye replacement policy state
Finished initializing Hawkeye replacement policy state
Heartbeat CPU 1 instructions: 10000000 cycles: 3750224 heartbeat IPC: 2.66651 cumulative IPC: 2.66651 (Simulation time: 0 hr 6 min 24 sec) 
Heartbeat CPU 0 instructions: 10000000 cycles: 4737236 heartbeat IPC: 2.11094 cumulative IPC: 2.11094 (Simulation time: 0 hr 8 min 8 sec) 
Heartbeat CPU 1 instructions: 20000000 cycles: 7510245 heartbeat IPC: 2.65956 cumulative IPC: 2.66303 (Simulation time: 0 hr 12 min 54 sec) 
Heartbeat CPU 0 instructions: 20000002 cycles: 9473834 heartbeat IPC: 2.11122 cumulative IPC: 2.11108 (Simulation time: 0 hr 16 min 13 sec) 
Heartbeat CPU 1 instructions: 30000002 cycles: 11264498 heartbeat IPC: 2.66365 cumulative IPC: 2.66323 (Simulation time: 0 hr 19 min 18 sec) 
Heartbeat CPU 0 instructions: 30000001 cycles: 14209555 heartbeat IPC: 2.11161 cumulative IPC: 2.11126 (Simulation time: 0 hr 24 min 23 sec) 
Heartbeat CPU 1 instructions: 40000001 cycles: 15019771 heartbeat IPC: 2.66292 cumulative IPC: 2.66316 (Simulation time: 0 hr 25 min 46 sec) 
Heartbeat CPU 1 instructions: 50000002 cycles: 18751094 heartbeat IPC: 2.68001 cumulative IPC: 2.66651 (Simulation time: 0 hr 32 min 12 sec) 
Heartbeat CPU 0 instructions: 40000000 cycles: 18946217 heartbeat IPC: 2.11119 cumulative IPC: 2.11124 (Simulation time: 0 hr 32 min 29 sec) 
Heartbeat CPU 1 instructions: 60000000 cycles: 22768343 heartbeat IPC: 2.48927 cumulative IPC: 0.439206 (Simulation time: 0 hr 38 min 8 sec) 
Heartbeat CPU 0 instructions: 50000002 cycles: 23684488 heartbeat IPC: 2.11047 cumulative IPC: 2.11109 (Simulation time: 0 hr 39 min 25 sec) 

Warmup complete CPU 0 instructions: 50000002 cycles: 23684488 (Simulation time: 0 hr 39 min 25 sec) 
Warmup complete CPU 1 instructions: 62185460 cycles: 23684487 (Simulation time: 0 hr 39 min 25 sec) 

Heartbeat CPU 1 instructions: 70000001 cycles: 28824693 heartbeat IPC: 1.65116 cumulative IPC: 1.52028 (Simulation time: 0 hr 44 min 46 sec) 
Heartbeat CPU 0 instructions: 60000001 cycles: 29138860 heartbeat IPC: 1.83339 cumulative IPC: 1.83339 (Simulation time: 0 hr 45 min 7 sec) 
Heartbeat CPU 0 instructions: 70000003 cycles: 34610342 heartbeat IPC: 1.82766 cumulative IPC: 1.83052 (Simulation time: 0 hr 50 min 36 sec) 
Heartbeat CPU 1 instructions: 80000001 cycles: 35800763 heartbeat IPC: 1.43347 cumulative IPC: 1.4703 (Simulation time: 0 hr 51 min 47 sec) 
Heartbeat CPU 0 instructions: 80000000 cycles: 40071991 heartbeat IPC: 1.83095 cumulative IPC: 1.83066 (Simulation time: 0 hr 56 min 2 sec) 
Heartbeat CPU 1 instructions: 90000000 cycles: 43232147 heartbeat IPC: 1.34564 cumulative IPC: 1.42291 (Simulation time: 0 hr 59 min 9 sec) 
Heartbeat CPU 0 instructions: 90000002 cycles: 45556660 heartbeat IPC: 1.82326 cumulative IPC: 1.82881 (Simulation time: 1 hr 1 min 30 sec) 
Heartbeat CPU 1 instructions: 100000003 cycles: 50996992 heartbeat IPC: 1.28786 cumulative IPC: 1.38451 (Simulation time: 1 hr 6 min 42 sec) 
Heartbeat CPU 0 instructions: 100000001 cycles: 51008241 heartbeat IPC: 1.83433 cumulative IPC: 1.82991 (Simulation time: 1 hr 6 min 43 sec) 
Heartbeat CPU 0 instructions: 110000000 cycles: 56825116 heartbeat IPC: 1.71914 cumulative IPC: 1.81047 (Simulation time: 1 hr 12 min 16 sec) 
Heartbeat CPU 1 instructions: 110000000 cycles: 58677152 heartbeat IPC: 1.30206 cumulative IPC: 1.36642 (Simulation time: 1 hr 14 min 5 sec) 
Heartbeat CPU 0 instructions: 120000001 cycles: 62600393 heartbeat IPC: 1.73152 cumulative IPC: 1.79875 (Simulation time: 1 hr 17 min 54 sec) 
Heartbeat CPU 1 instructions: 120000000 cycles: 66360436 heartbeat IPC: 1.30153 cumulative IPC: 1.35473 (Simulation time: 1 hr 20 min 57 sec) 
Heartbeat CPU 0 instructions: 130000001 cycles: 68031477 heartbeat IPC: 1.84125 cumulative IPC: 1.80396 (Simulation time: 1 hr 22 min 15 sec) 
Heartbeat CPU 0 instructions: 140000002 cycles: 73431646 heartbeat IPC: 1.85179 cumulative IPC: 1.80915 (Simulation time: 1 hr 26 min 39 sec) 
Heartbeat CPU 1 instructions: 130000000 cycles: 73848125 heartbeat IPC: 1.33553 cumulative IPC: 1.35187 (Simulation time: 1 hr 26 min 59 sec) 
Heartbeat CPU 0 instructions: 150000003 cycles: 78910518 heartbeat IPC: 1.82519 cumulative IPC: 1.81074 (Simulation time: 1 hr 31 min 5 sec) 
Finished CPU 0 instructions: 100000001 cycles: 55226030 cumulative IPC: 1.81074 (Simulation time: 1 hr 31 min 5 sec) 
Heartbeat CPU 1 instructions: 140000001 cycles: 81070093 heartbeat IPC: 1.38466 cumulative IPC: 1.35599 (Simulation time: 1 hr 32 min 52 sec) 
Heartbeat CPU 0 instructions: 160000001 cycles: 84347261 heartbeat IPC: 1.83934 cumulative IPC: 1.8133 (Simulation time: 1 hr 35 min 33 sec) 
Heartbeat CPU 1 instructions: 150000003 cycles: 88056660 heartbeat IPC: 1.43132 cumulative IPC: 1.36417 (Simulation time: 1 hr 38 min 38 sec) 
Heartbeat CPU 0 instructions: 170000000 cycles: 89784145 heartbeat IPC: 1.83929 cumulative IPC: 1.81544 (Simulation time: 1 hr 40 min 4 sec) 
Heartbeat CPU 0 instructions: 180000003 cycles: 95214249 heartbeat IPC: 1.84159 cumulative IPC: 1.81743 (Simulation time: 1 hr 44 min 26 sec) 
Heartbeat CPU 1 instructions: 160000000 cycles: 95504782 heartbeat IPC: 1.34262 cumulative IPC: 1.36193 (Simulation time: 1 hr 44 min 41 sec) 
Finished CPU 1 instructions: 100000000 cycles: 73490696 cumulative IPC: 1.36072 (Simulation time: 1 hr 46 min 2 sec) 

ChampSim completed all CPUs

Total Simulation Statistics (not including warmup)

CPU 0 cumulative IPC: 1.81776 instructions: 133588087 cycles: 73490695
L1D TOTAL     ACCESS:   47309078  HIT:   46668053  MISS:     641025
L1D LOAD      ACCESS:   39473878  HIT:   39245616  MISS:     228262
L1D RFO       ACCESS:    7835200  HIT:    7422437  MISS:     412763
L1D PREFETCH  ACCESS:          0  HIT:          0  MISS:          0
L1D WRITEBACK ACCESS:          0  HIT:          0  MISS:          0
L1I TOTAL     ACCESS:   21783382  HIT:   21782971  MISS:        411
L1I LOAD      ACCESS:   21783382  HIT:   21782971  MISS:        411
L1I RFO       ACCESS:          0  HIT:          0  MISS:          0
L1I PREFETCH  ACCESS:          0  HIT:          0  MISS:          0
L1I WRITEBACK ACCESS:          0  HIT:          0  MISS:          0
L2C TOTAL     ACCESS:    1055652  HIT:     687748  MISS:     367904
L2C LOAD      ACCESS:     228673  HIT:     213645  MISS:      15028
L2C RFO       ACCESS:     412763  HIT:      59942  MISS:     352821
L2C PREFETCH  ACCESS:          0  HIT:          0  MISS:          0
L2C WRITEBACK ACCESS:     414216  HIT:     414161  MISS:         55
LLC TOTAL     ACCESS:     723002  HIT:     691633  MISS:      31369
LLC LOAD      ACCESS:      15028  HIT:      14673  MISS:        355
LLC RFO       ACCESS:     352818  HIT:     321852  MISS:      30966
LLC PREFETCH  ACCESS:          0  HIT:          0  MISS:          0
LLC WRITEBACK ACCESS:     355156  HIT:     355108  MISS:         48

CPU 1 cumulative IPC: 1.36072 instructions: 100000000 cycles: 73490696
L1D TOTAL     ACCESS:   31654293  HIT:   31567992  MISS:      86301
L1D LOAD      ACCESS:   18875295  HIT:   18801673  MISS:      73622
L1D RFO       ACCESS:   12778998  HIT:   12766319  MISS:      12679
L1D PREFETCH  ACCESS:          0  HIT:          0  MISS:          0
L1D WRITEBACK ACCESS:          0  HIT:          0  MISS:          0
L1I TOTAL     ACCESS:   15664112  HIT:   15598790  MISS:      65322
L1I LOAD      ACCESS:   15664112  HIT:   15598790  MISS:      65322
L1I RFO       ACCESS:          0  HIT:          0  MISS:          0
L1I PREFETCH  ACCESS:          0  HIT:          0  MISS:          0
L1I WRITEBACK ACCESS:          0  HIT:          0  MISS:          0
L2C TOTAL     ACCESS:     169545  HIT:     169291  MISS:        254
L2C LOAD      ACCESS:     138944  HIT:     138704  MISS:        240
L2C RFO       ACCESS:      12649  HIT:      12635  MISS:         14
L2C PREFETCH  ACCESS:          0  HIT:          0  MISS:          0
L2C WRITEBACK ACCESS:      17952  HIT:      17952  MISS:          0
LLC TOTAL     ACCESS:        259  HIT:         19  MISS:        240
LLC LOAD      ACCESS:        240  HIT:         14  MISS:        226
LLC RFO       ACCESS:         14  HIT:          0  MISS:         14
LLC PREFETCH  ACCESS:          0  HIT:          0  MISS:          0
LLC WRITEBACK ACCESS:          5  HIT:          5  MISS:          0

Region of Interest Statistics

CPU 0 cumulative IPC: 1.81074 instructions: 100000001 cycles: 55226030
L1D TOTAL     ACCESS:   35408675  HIT:   34928190  MISS:     480485
L1D LOAD      ACCESS:   29546358  HIT:   29375123  MISS:     171235
L1D RFO       ACCESS:    5862317  HIT:    5553067  MISS:     309250
L1D PREFETCH  ACCESS:          0  HIT:          0  MISS:          0
L1D WRITEBACK ACCESS:          0  HIT:          0  MISS:          0
L1D PREFETCH  REQUESTED:          0  ISSUED:          0  USEFUL:          0  USELESS:          0
L1D AVERAGE MISS LATENCY: 52.1025 cycles
L1I TOTAL     ACCESS:   16313089  HIT:   16312730  MISS:        359
L1I LOAD      ACCESS:   16313089  HIT:   16312730  MISS:        359
L1I RFO       ACCESS:          0  HIT:          0  MISS:          0
L1I PREFETCH  ACCESS:          0  HIT:          0  MISS:          0
L1I WRITEBACK ACCESS:          0  HIT:          0  MISS:          0
L1I PREFETCH  REQUESTED:          0  ISSUED:          0  USEFUL:          0  USELESS:          0
L1I AVERAGE MISS LATENCY: 52.2535 cycles
L2C TOTAL     ACCESS:     791273  HIT:     531130  MISS:     260143
L2C LOAD      ACCESS:     171594  HIT:     161100  MISS:      10494
L2C RFO       ACCESS:     309250  HIT:      59639  MISS:     249611
L2C PREFETCH  ACCESS:          0  HIT:          0  MISS:          0
L2C WRITEBACK ACCESS:     310429  HIT:     310391  MISS:         38
L2C PREFETCH  REQUESTED:          0  ISSUED:          0  USEFUL:          0  USELESS:          0
L2C AVERAGE MISS LATENCY: 59.2521 cycles
LLC TOTAL     ACCESS:     511180  HIT:     479898  MISS:      31282
LLC LOAD      ACCESS:      10494  HIT:      10160  MISS:        334
LLC RFO       ACCESS:     249608  HIT:     218708  MISS:      30900
LLC PREFETCH  ACCESS:          0  HIT:          0  MISS:          0
LLC WRITEBACK ACCESS:     251078  HIT:     251030  MISS:         48
LLC PREFETCH  REQUESTED:          0  ISSUED:          0  USEFUL:          0  USELESS:          0
LLC AVERAGE MISS LATENCY: 141.164 cycles
Major fault: 0 Minor fault: 773

CPU 1 cumulative IPC: 1.36072 instructions: 100000000 cycles: 73490696
L1D TOTAL     ACCESS:   31654293  HIT:   31567992  MISS:      86301
L1D LOAD      ACCESS:   18875295  HIT:   18801673  MISS:      73622
L1D RFO       ACCESS:   12778998  HIT:   12766319  MISS:      12679
L1D PREFETCH  ACCESS:          0  HIT:          0  MISS:          0
L1D WRITEBACK ACCESS:          0  HIT:          0  MISS:          0
L1D PREFETCH  REQUESTED:          0  ISSUED:          0  USEFUL:          0  USELESS:          0
L1D AVERAGE MISS LATENCY: 15.509 cycles
L1I TOTAL     ACCESS:   15664112  HIT:   15598790  MISS:      65322
L1I LOAD      ACCESS:   15664112  HIT:   15598790  MISS:      65322
L1I RFO       ACCESS:          0  HIT:          0  MISS:          0
L1I PREFETCH  ACCESS:          0  HIT:          0  MISS:          0
L1I WRITEBACK ACCESS:          0  HIT:          0  MISS:          0
L1I PREFETCH  REQUESTED:          0  ISSUED:          0  USEFUL:          0  USELESS:          0
L1I AVERAGE MISS LATENCY: 14.1189 cycles
L2C TOTAL     ACCESS:     169545  HIT:     169291  MISS:        254
L2C LOAD      ACCESS:     138944  HIT:     138704  MISS:        240
L2C RFO       ACCESS:      12649  HIT:      12635  MISS:         14
L2C PREFETCH  ACCESS:          0  HIT:          0  MISS:          0
L2C WRITEBACK ACCESS:      17952  HIT:      17952  MISS:          0
L2C PREFETCH  REQUESTED:          0  ISSUED:          0  USEFUL:          0  USELESS:          0
L2C AVERAGE MISS LATENCY: 183.173 cycles
LLC TOTAL     ACCESS:        259  HIT:         19  MISS:        240
LLC LOAD      ACCESS:        240  HIT:         14  MISS:        226
LLC RFO       ACCESS:         14  HIT:          0  MISS:         14
LLC PREFETCH  ACCESS:          0  HIT:          0  MISS:          0
LLC WRITEBACK ACCESS:          5  HIT:          5  MISS:          0
LLC PREFETCH  REQUESTED:          0  ISSUED:          0  USEFUL:          0  USELESS:          0
LLC AVERAGE MISS LATENCY: 18399.5 cycles
Major fault: 0 Minor fault: 200
Final OPTGen Hits: 7116
Final OPTGen Access: 7975
Final OPTGEN Hit Rate: 89.2288

DRAM Statistics
 CHANNEL 0
 RQ ROW_BUFFER_HIT:      26847  ROW_BUFFER_MISS:       4714
 DBUS_CONGESTED:        124
 WQ ROW_BUFFER_HIT:          0  ROW_BUFFER_MISS:         34  FULL:          0

 AVG_CONGESTED_CYCLE: 4

CPU 0 Branch Prediction Accuracy: 99.2943% MPKI: 0.27218 Average ROB Occupancy at Mispredict: 86.8165

Branch types
NOT_BRANCH: 128435848 96.1432%
BRANCH_DIRECT_JUMP: 42668 0.03194%
BRANCH_INDIRECT: 11784 0.00882115%
BRANCH_CONDITIONAL: 5075072 3.79905%
BRANCH_DIRECT_CALL: 11356 0.00850076%
BRANCH_INDIRECT_CALL: 4 2.99428e-06%
BRANCH_RETURN: 11360 0.00850375%
BRANCH_OTHER: 0 0%


CPU 1 Branch Prediction Accuracy: 94.3708% MPKI: 5.86305 Average ROB Occupancy at Mispredict: 64.8023

Branch types
NOT_BRANCH: 88315490 88.3155%
BRANCH_DIRECT_JUMP: 809472 0.809472%
BRANCH_INDIRECT: 227884 0.227884%
BRANCH_CONDITIONAL: 9340883 9.34088%
BRANCH_DIRECT_CALL: 653133 0.653133%
BRANCH_INDIRECT_CALL: 0 0%
BRANCH_RETURN: 653135 0.653135%
BRANCH_OTHER: 0 0%

