
*** ChampSim Multicore Out-of-Order Simulator ***

Warmup Instructions: 50000000
Simulation Instructions: 100000000
Number of CPUs: 2
LLC sets: 4096
LLC ways: 16
Off-chip DRAM Size: 4096 MB Channels: 1 Width: 64-bit Data Rate: 3200 MT/s

CPU 0 runs /home/pratap/Templates/champsim_msa/dpc3_traces/hmmer_546B.trace.xz
CPU 1 runs /home/pratap/Templates/champsim_msa/dpc3_traces/mcf_158B.trace.xz
CPU 0 Bimodal branch predictor
CPU 1 Bimodal branch predictor
Initialize Hawkeye replacement policy state
Finished initializing Hawkeye replacement policy state
Heartbeat CPU 1 instructions: 10000002 cycles: 4722419 heartbeat IPC: 2.11756 cumulative IPC: 2.11756 (Simulation time: 0 hr 2 min 53 sec) 
Heartbeat CPU 0 instructions: 10000000 cycles: 4737279 heartbeat IPC: 2.11092 cumulative IPC: 2.11092 (Simulation time: 0 hr 2 min 54 sec) 
Heartbeat CPU 1 instructions: 20000000 cycles: 9408387 heartbeat IPC: 2.13403 cumulative IPC: 2.12576 (Simulation time: 0 hr 5 min 35 sec) 
Heartbeat CPU 0 instructions: 20000002 cycles: 9473874 heartbeat IPC: 2.11122 cumulative IPC: 2.11107 (Simulation time: 0 hr 5 min 37 sec) 
Heartbeat CPU 1 instructions: 30000001 cycles: 14035300 heartbeat IPC: 2.16127 cumulative IPC: 2.13747 (Simulation time: 0 hr 8 min 18 sec) 
Heartbeat CPU 0 instructions: 30000001 cycles: 14209589 heartbeat IPC: 2.11161 cumulative IPC: 2.11125 (Simulation time: 0 hr 8 min 25 sec) 
Heartbeat CPU 1 instructions: 40000001 cycles: 18636418 heartbeat IPC: 2.17338 cumulative IPC: 2.14634 (Simulation time: 0 hr 11 min 5 sec) 
Heartbeat CPU 0 instructions: 40000000 cycles: 18946154 heartbeat IPC: 2.11123 cumulative IPC: 2.11125 (Simulation time: 0 hr 11 min 15 sec) 
Heartbeat CPU 1 instructions: 50000002 cycles: 23111416 heartbeat IPC: 2.23464 cumulative IPC: 2.16343 (Simulation time: 0 hr 13 min 38 sec) 
Heartbeat CPU 0 instructions: 50000002 cycles: 23684457 heartbeat IPC: 2.11046 cumulative IPC: 2.11109 (Simulation time: 0 hr 13 min 50 sec) 

Warmup complete CPU 0 instructions: 50000002 cycles: 23684457 (Simulation time: 0 hr 13 min 50 sec) 
Warmup complete CPU 1 instructions: 50729771 cycles: 23684456 (Simulation time: 0 hr 13 min 50 sec) 

Heartbeat CPU 0 instructions: 60000001 cycles: 29259168 heartbeat IPC: 1.79381 cumulative IPC: 1.79381 (Simulation time: 0 hr 15 min 3 sec) 
Heartbeat CPU 0 instructions: 70000003 cycles: 34735896 heartbeat IPC: 1.82591 cumulative IPC: 1.80972 (Simulation time: 0 hr 16 min 12 sec) 
Heartbeat CPU 0 instructions: 80000000 cycles: 40199531 heartbeat IPC: 1.83028 cumulative IPC: 1.81652 (Simulation time: 0 hr 17 min 20 sec) 
Heartbeat CPU 0 instructions: 90000002 cycles: 45687405 heartbeat IPC: 1.8222 cumulative IPC: 1.81794 (Simulation time: 0 hr 18 min 29 sec) 
Heartbeat CPU 0 instructions: 100000001 cycles: 51141158 heartbeat IPC: 1.8336 cumulative IPC: 1.82105 (Simulation time: 0 hr 19 min 38 sec) 
Heartbeat CPU 0 instructions: 110000000 cycles: 57361344 heartbeat IPC: 1.60767 cumulative IPC: 1.78164 (Simulation time: 0 hr 20 min 53 sec) 
Heartbeat CPU 0 instructions: 120000001 cycles: 64063163 heartbeat IPC: 1.49213 cumulative IPC: 1.73359 (Simulation time: 0 hr 22 min 11 sec) 
Heartbeat CPU 0 instructions: 130000001 cycles: 70372765 heartbeat IPC: 1.58489 cumulative IPC: 1.71349 (Simulation time: 0 hr 23 min 26 sec) 
Heartbeat CPU 0 instructions: 140000002 cycles: 76410729 heartbeat IPC: 1.65619 cumulative IPC: 1.70693 (Simulation time: 0 hr 24 min 38 sec) 
Heartbeat CPU 0 instructions: 150000003 cycles: 83020483 heartbeat IPC: 1.51292 cumulative IPC: 1.68532 (Simulation time: 0 hr 25 min 48 sec) 
Finished CPU 0 instructions: 100000001 cycles: 59336026 cumulative IPC: 1.68532 (Simulation time: 0 hr 25 min 48 sec) 
Heartbeat CPU 0 instructions: 160000001 cycles: 89211998 heartbeat IPC: 1.61511 cumulative IPC: 1.67868 (Simulation time: 0 hr 26 min 46 sec) 
Heartbeat CPU 0 instructions: 170000000 cycles: 95337729 heartbeat IPC: 1.63246 cumulative IPC: 1.67473 (Simulation time: 0 hr 27 min 43 sec) 
Heartbeat CPU 0 instructions: 180000003 cycles: 101529624 heartbeat IPC: 1.61501 cumulative IPC: 1.66998 (Simulation time: 0 hr 28 min 43 sec) 
Heartbeat CPU 0 instructions: 190000001 cycles: 107641432 heartbeat IPC: 1.63618 cumulative IPC: 1.66752 (Simulation time: 0 hr 29 min 41 sec) 
Heartbeat CPU 0 instructions: 200000002 cycles: 113567194 heartbeat IPC: 1.68755 cumulative IPC: 1.66884 (Simulation time: 0 hr 30 min 42 sec) 
Heartbeat CPU 0 instructions: 210000001 cycles: 120118765 heartbeat IPC: 1.52635 cumulative IPC: 1.65916 (Simulation time: 0 hr 31 min 43 sec) 
Heartbeat CPU 0 instructions: 220000000 cycles: 126148583 heartbeat IPC: 1.65842 cumulative IPC: 1.65912 (Simulation time: 0 hr 32 min 39 sec) 
Heartbeat CPU 0 instructions: 230000000 cycles: 132710275 heartbeat IPC: 1.524 cumulative IPC: 1.65099 (Simulation time: 0 hr 33 min 37 sec) 
Heartbeat CPU 0 instructions: 240000001 cycles: 138838046 heartbeat IPC: 1.63191 cumulative IPC: 1.64997 (Simulation time: 0 hr 34 min 30 sec) 
Heartbeat CPU 0 instructions: 250000003 cycles: 145397567 heartbeat IPC: 1.5245 cumulative IPC: 1.64321 (Simulation time: 0 hr 35 min 24 sec) 
Heartbeat CPU 1 instructions: 60000000 cycles: 149826502 heartbeat IPC: 0.0789172 cumulative IPC: 0.0734904 (Simulation time: 0 hr 36 min 3 sec) 
Heartbeat CPU 0 instructions: 260000001 cycles: 151195664 heartbeat IPC: 1.7247 cumulative IPC: 1.64691 (Simulation time: 0 hr 36 min 15 sec) 
Heartbeat CPU 0 instructions: 270000000 cycles: 157203908 heartbeat IPC: 1.66438 cumulative IPC: 1.6477 (Simulation time: 0 hr 37 min 7 sec) 
Heartbeat CPU 0 instructions: 280000001 cycles: 163169951 heartbeat IPC: 1.67615 cumulative IPC: 1.64892 (Simulation time: 0 hr 38 min 0 sec) 
Heartbeat CPU 0 instructions: 290000000 cycles: 169478643 heartbeat IPC: 1.58511 cumulative IPC: 1.64616 (Simulation time: 0 hr 38 min 52 sec) 
Heartbeat CPU 0 instructions: 300000003 cycles: 175457270 heartbeat IPC: 1.67263 cumulative IPC: 1.6472 (Simulation time: 0 hr 39 min 42 sec) 
Heartbeat CPU 0 instructions: 310000002 cycles: 181503646 heartbeat IPC: 1.65388 cumulative IPC: 1.64745 (Simulation time: 0 hr 40 min 32 sec) 
Heartbeat CPU 0 instructions: 320000002 cycles: 187502339 heartbeat IPC: 1.66703 cumulative IPC: 1.64817 (Simulation time: 0 hr 41 min 23 sec) 
Heartbeat CPU 0 instructions: 330000000 cycles: 193566431 heartbeat IPC: 1.64905 cumulative IPC: 1.6482 (Simulation time: 0 hr 42 min 12 sec) 
Heartbeat CPU 0 instructions: 340000002 cycles: 199521625 heartbeat IPC: 1.67921 cumulative IPC: 1.64925 (Simulation time: 0 hr 42 min 58 sec) 
Heartbeat CPU 0 instructions: 350000001 cycles: 205437955 heartbeat IPC: 1.69024 cumulative IPC: 1.65059 (Simulation time: 0 hr 43 min 44 sec) 
Heartbeat CPU 0 instructions: 360000003 cycles: 211375925 heartbeat IPC: 1.68408 cumulative IPC: 1.65165 (Simulation time: 0 hr 44 min 29 sec) 
Heartbeat CPU 0 instructions: 370000000 cycles: 217272693 heartbeat IPC: 1.69584 cumulative IPC: 1.65299 (Simulation time: 0 hr 45 min 13 sec) 
Heartbeat CPU 0 instructions: 380000002 cycles: 223182243 heartbeat IPC: 1.69218 cumulative IPC: 1.65415 (Simulation time: 0 hr 45 min 59 sec) 
Heartbeat CPU 0 instructions: 390000002 cycles: 229154356 heartbeat IPC: 1.67445 cumulative IPC: 1.65474 (Simulation time: 0 hr 46 min 45 sec) 
Heartbeat CPU 0 instructions: 400000001 cycles: 235081122 heartbeat IPC: 1.68726 cumulative IPC: 1.65566 (Simulation time: 0 hr 47 min 32 sec) 
Heartbeat CPU 0 instructions: 410000002 cycles: 240963641 heartbeat IPC: 1.69995 cumulative IPC: 1.65685 (Simulation time: 0 hr 48 min 17 sec) 
Heartbeat CPU 0 instructions: 420000000 cycles: 246838761 heartbeat IPC: 1.70209 cumulative IPC: 1.65805 (Simulation time: 0 hr 48 min 59 sec) 
Heartbeat CPU 0 instructions: 430000000 cycles: 252704756 heartbeat IPC: 1.70474 cumulative IPC: 1.65924 (Simulation time: 0 hr 49 min 36 sec) 
Heartbeat CPU 0 instructions: 440000000 cycles: 258616313 heartbeat IPC: 1.6916 cumulative IPC: 1.66006 (Simulation time: 0 hr 50 min 10 sec) 
Heartbeat CPU 0 instructions: 450000000 cycles: 264625564 heartbeat IPC: 1.6641 cumulative IPC: 1.66016 (Simulation time: 0 hr 50 min 46 sec) 
Heartbeat CPU 0 instructions: 460000001 cycles: 270549953 heartbeat IPC: 1.68794 cumulative IPC: 1.66082 (Simulation time: 0 hr 51 min 26 sec) 
Heartbeat CPU 1 instructions: 70000001 cycles: 274929316 heartbeat IPC: 0.0799343 cumulative IPC: 0.076699 (Simulation time: 0 hr 51 min 55 sec) 
Heartbeat CPU 0 instructions: 470000000 cycles: 276486905 heartbeat IPC: 1.68437 cumulative IPC: 1.66138 (Simulation time: 0 hr 52 min 6 sec) 
Heartbeat CPU 0 instructions: 480000003 cycles: 282351824 heartbeat IPC: 1.70505 cumulative IPC: 1.66237 (Simulation time: 0 hr 52 min 38 sec) 
Heartbeat CPU 0 instructions: 490000002 cycles: 288207715 heartbeat IPC: 1.70768 cumulative IPC: 1.66337 (Simulation time: 0 hr 53 min 15 sec) 
Heartbeat CPU 0 instructions: 500000001 cycles: 294020042 heartbeat IPC: 1.72048 cumulative IPC: 1.6646 (Simulation time: 0 hr 53 min 52 sec) 
Heartbeat CPU 0 instructions: 510000000 cycles: 299912330 heartbeat IPC: 1.69713 cumulative IPC: 1.66529 (Simulation time: 0 hr 54 min 23 sec) 
Heartbeat CPU 0 instructions: 520000001 cycles: 305844690 heartbeat IPC: 1.68567 cumulative IPC: 1.66572 (Simulation time: 0 hr 55 min 1 sec) 
Heartbeat CPU 0 instructions: 530000003 cycles: 311502497 heartbeat IPC: 1.76747 cumulative IPC: 1.66772 (Simulation time: 0 hr 55 min 33 sec) 
Heartbeat CPU 0 instructions: 540000003 cycles: 317075510 heartbeat IPC: 1.79436 cumulative IPC: 1.67013 (Simulation time: 0 hr 56 min 4 sec) 
Heartbeat CPU 0 instructions: 550000000 cycles: 322645049 heartbeat IPC: 1.79548 cumulative IPC: 1.67246 (Simulation time: 0 hr 56 min 34 sec) 
Heartbeat CPU 0 instructions: 560000003 cycles: 328190032 heartbeat IPC: 1.80343 cumulative IPC: 1.67485 (Simulation time: 0 hr 57 min 3 sec) 
Heartbeat CPU 0 instructions: 570000003 cycles: 333728664 heartbeat IPC: 1.8055 cumulative IPC: 1.67718 (Simulation time: 0 hr 57 min 33 sec) 
Heartbeat CPU 0 instructions: 580000000 cycles: 339262199 heartbeat IPC: 1.80716 cumulative IPC: 1.67946 (Simulation time: 0 hr 58 min 2 sec) 
Heartbeat CPU 0 instructions: 590000002 cycles: 344794877 heartbeat IPC: 1.80744 cumulative IPC: 1.68166 (Simulation time: 0 hr 58 min 32 sec) 
Heartbeat CPU 0 instructions: 600000000 cycles: 350365543 heartbeat IPC: 1.79512 cumulative IPC: 1.6836 (Simulation time: 0 hr 59 min 3 sec) 
Heartbeat CPU 0 instructions: 610000000 cycles: 355915964 heartbeat IPC: 1.80167 cumulative IPC: 1.68557 (Simulation time: 0 hr 59 min 36 sec) 
Heartbeat CPU 0 instructions: 620000003 cycles: 361437357 heartbeat IPC: 1.81114 cumulative IPC: 1.68762 (Simulation time: 1 hr 0 min 6 sec) 
Heartbeat CPU 0 instructions: 630000000 cycles: 366991055 heartbeat IPC: 1.8006 cumulative IPC: 1.68945 (Simulation time: 1 hr 0 min 37 sec) 
Heartbeat CPU 0 instructions: 640000002 cycles: 372547240 heartbeat IPC: 1.7998 cumulative IPC: 1.69121 (Simulation time: 1 hr 1 min 6 sec) 
Heartbeat CPU 0 instructions: 650000001 cycles: 378113216 heartbeat IPC: 1.79663 cumulative IPC: 1.69286 (Simulation time: 1 hr 1 min 36 sec) 
Heartbeat CPU 0 instructions: 660000000 cycles: 383744812 heartbeat IPC: 1.7757 cumulative IPC: 1.69416 (Simulation time: 1 hr 2 min 6 sec) 
Heartbeat CPU 0 instructions: 670000000 cycles: 389389844 heartbeat IPC: 1.77147 cumulative IPC: 1.69535 (Simulation time: 1 hr 2 min 32 sec) 
Heartbeat CPU 0 instructions: 680000003 cycles: 395185293 heartbeat IPC: 1.72549 cumulative IPC: 1.69582 (Simulation time: 1 hr 2 min 59 sec) 
Heartbeat CPU 1 instructions: 80000000 cycles: 399930697 heartbeat IPC: 0.0799991 cumulative IPC: 0.0777954 (Simulation time: 1 hr 3 min 25 sec) 
Heartbeat CPU 0 instructions: 690000002 cycles: 401176006 heartbeat IPC: 1.66925 cumulative IPC: 1.6954 (Simulation time: 1 hr 3 min 33 sec) 
Heartbeat CPU 0 instructions: 700000001 cycles: 406979397 heartbeat IPC: 1.72313 cumulative IPC: 1.69582 (Simulation time: 1 hr 4 min 6 sec) 
Heartbeat CPU 0 instructions: 710000003 cycles: 412732263 heartbeat IPC: 1.73826 cumulative IPC: 1.69645 (Simulation time: 1 hr 4 min 34 sec) 
Heartbeat CPU 0 instructions: 720000002 cycles: 418393355 heartbeat IPC: 1.76644 cumulative IPC: 1.69745 (Simulation time: 1 hr 5 min 3 sec) 
Heartbeat CPU 0 instructions: 730000000 cycles: 424051955 heartbeat IPC: 1.76722 cumulative IPC: 1.69844 (Simulation time: 1 hr 5 min 32 sec) 
Heartbeat CPU 0 instructions: 740000000 cycles: 429736422 heartbeat IPC: 1.75918 cumulative IPC: 1.69929 (Simulation time: 1 hr 6 min 3 sec) 
Heartbeat CPU 0 instructions: 750000003 cycles: 435410351 heartbeat IPC: 1.76245 cumulative IPC: 1.70016 (Simulation time: 1 hr 6 min 33 sec) 
Heartbeat CPU 0 instructions: 760000001 cycles: 441045781 heartbeat IPC: 1.77449 cumulative IPC: 1.70116 (Simulation time: 1 hr 7 min 2 sec) 
Heartbeat CPU 0 instructions: 770000000 cycles: 446679636 heartbeat IPC: 1.77498 cumulative IPC: 1.70215 (Simulation time: 1 hr 7 min 33 sec) 
Heartbeat CPU 0 instructions: 780000000 cycles: 452703291 heartbeat IPC: 1.66012 cumulative IPC: 1.70156 (Simulation time: 1 hr 8 min 1 sec) 
Heartbeat CPU 0 instructions: 790000001 cycles: 458633315 heartbeat IPC: 1.68633 cumulative IPC: 1.70135 (Simulation time: 1 hr 8 min 27 sec) 
Heartbeat CPU 0 instructions: 800000000 cycles: 464287540 heartbeat IPC: 1.76859 cumulative IPC: 1.70221 (Simulation time: 1 hr 8 min 52 sec) 
Heartbeat CPU 0 instructions: 810000000 cycles: 470680955 heartbeat IPC: 1.56411 cumulative IPC: 1.70024 (Simulation time: 1 hr 9 min 18 sec) 
Heartbeat CPU 0 instructions: 820000002 cycles: 476684932 heartbeat IPC: 1.66556 cumulative IPC: 1.69978 (Simulation time: 1 hr 9 min 43 sec) 
Heartbeat CPU 0 instructions: 830000001 cycles: 482757189 heartbeat IPC: 1.64683 cumulative IPC: 1.69908 (Simulation time: 1 hr 10 min 8 sec) 
Heartbeat CPU 0 instructions: 840000001 cycles: 488854961 heartbeat IPC: 1.63994 cumulative IPC: 1.6983 (Simulation time: 1 hr 10 min 33 sec) 
Heartbeat CPU 0 instructions: 850000001 cycles: 495199046 heartbeat IPC: 1.57627 cumulative IPC: 1.69666 (Simulation time: 1 hr 10 min 59 sec) 
Heartbeat CPU 0 instructions: 860000000 cycles: 502325443 heartbeat IPC: 1.40323 cumulative IPC: 1.69229 (Simulation time: 1 hr 11 min 26 sec) 
Heartbeat CPU 0 instructions: 870000001 cycles: 508420839 heartbeat IPC: 1.64058 cumulative IPC: 1.69164 (Simulation time: 1 hr 11 min 52 sec) 
Heartbeat CPU 0 instructions: 880000000 cycles: 515023140 heartbeat IPC: 1.51462 cumulative IPC: 1.68926 (Simulation time: 1 hr 12 min 18 sec) 
Heartbeat CPU 0 instructions: 890000000 cycles: 520763321 heartbeat IPC: 1.74211 cumulative IPC: 1.68987 (Simulation time: 1 hr 12 min 43 sec) 
Heartbeat CPU 0 instructions: 900000002 cycles: 526566685 heartbeat IPC: 1.72314 cumulative IPC: 1.69026 (Simulation time: 1 hr 13 min 7 sec) 
Heartbeat CPU 1 instructions: 90000003 cycles: 531528837 heartbeat IPC: 0.0759889 cumulative IPC: 0.0773273 (Simulation time: 1 hr 13 min 29 sec) 
Heartbeat CPU 0 instructions: 910000001 cycles: 532061598 heartbeat IPC: 1.81986 cumulative IPC: 1.69166 (Simulation time: 1 hr 13 min 31 sec) 
Heartbeat CPU 0 instructions: 920000001 cycles: 537612248 heartbeat IPC: 1.80159 cumulative IPC: 1.69284 (Simulation time: 1 hr 13 min 55 sec) 
Heartbeat CPU 0 instructions: 930000002 cycles: 543677384 heartbeat IPC: 1.64877 cumulative IPC: 1.69233 (Simulation time: 1 hr 14 min 21 sec) 
Heartbeat CPU 0 instructions: 940000003 cycles: 550410228 heartbeat IPC: 1.48526 cumulative IPC: 1.68968 (Simulation time: 1 hr 14 min 47 sec) 
Heartbeat CPU 0 instructions: 950000003 cycles: 556439977 heartbeat IPC: 1.65844 cumulative IPC: 1.68933 (Simulation time: 1 hr 15 min 11 sec) 
Heartbeat CPU 0 instructions: 960000001 cycles: 562985859 heartbeat IPC: 1.52768 cumulative IPC: 1.68737 (Simulation time: 1 hr 15 min 35 sec) 
Heartbeat CPU 0 instructions: 970000003 cycles: 569321701 heartbeat IPC: 1.57832 cumulative IPC: 1.6861 (Simulation time: 1 hr 15 min 59 sec) 
Heartbeat CPU 0 instructions: 980000000 cycles: 575409659 heartbeat IPC: 1.64259 cumulative IPC: 1.68562 (Simulation time: 1 hr 16 min 22 sec) 
Heartbeat CPU 0 instructions: 990000000 cycles: 581444383 heartbeat IPC: 1.65708 cumulative IPC: 1.68531 (Simulation time: 1 hr 16 min 44 sec) 
*** Reached end of trace for Core: 0 Repeating trace: /home/pratap/Templates/champsim_msa/dpc3_traces/hmmer_546B.trace.xz
Heartbeat CPU 0 instructions: 1000000002 cycles: 587562291 heartbeat IPC: 1.63455 cumulative IPC: 1.68476 (Simulation time: 1 hr 17 min 7 sec) 
Heartbeat CPU 0 instructions: 1010000000 cycles: 593388663 heartbeat IPC: 1.71633 cumulative IPC: 1.68508 (Simulation time: 1 hr 17 min 31 sec) 
Heartbeat CPU 0 instructions: 1020000002 cycles: 598904160 heartbeat IPC: 1.81307 cumulative IPC: 1.68631 (Simulation time: 1 hr 17 min 54 sec) 
Heartbeat CPU 0 instructions: 1030000003 cycles: 604430010 heartbeat IPC: 1.80968 cumulative IPC: 1.68749 (Simulation time: 1 hr 18 min 16 sec) 
Heartbeat CPU 0 instructions: 1040000000 cycles: 609975954 heartbeat IPC: 1.80312 cumulative IPC: 1.68858 (Simulation time: 1 hr 18 min 38 sec) 
Heartbeat CPU 0 instructions: 1050000001 cycles: 615499863 heartbeat IPC: 1.81031 cumulative IPC: 1.68972 (Simulation time: 1 hr 18 min 59 sec) 
Heartbeat CPU 0 instructions: 1060000001 cycles: 621004303 heartbeat IPC: 1.81672 cumulative IPC: 1.69089 (Simulation time: 1 hr 19 min 21 sec) 
Heartbeat CPU 0 instructions: 1070000000 cycles: 626526463 heartbeat IPC: 1.81089 cumulative IPC: 1.69199 (Simulation time: 1 hr 19 min 43 sec) 
Heartbeat CPU 0 instructions: 1080000003 cycles: 632020115 heartbeat IPC: 1.82028 cumulative IPC: 1.69314 (Simulation time: 1 hr 20 min 5 sec) 
Heartbeat CPU 0 instructions: 1090000000 cycles: 637540724 heartbeat IPC: 1.81139 cumulative IPC: 1.69421 (Simulation time: 1 hr 20 min 28 sec) 
Heartbeat CPU 0 instructions: 1100000000 cycles: 643042953 heartbeat IPC: 1.81745 cumulative IPC: 1.6953 (Simulation time: 1 hr 20 min 50 sec) 
Heartbeat CPU 0 instructions: 1110000001 cycles: 648844486 heartbeat IPC: 1.72368 cumulative IPC: 1.69557 (Simulation time: 1 hr 21 min 14 sec) 
Heartbeat CPU 0 instructions: 1120000001 cycles: 655257550 heartbeat IPC: 1.55932 cumulative IPC: 1.69418 (Simulation time: 1 hr 21 min 38 sec) 
Heartbeat CPU 0 instructions: 1130000003 cycles: 661291689 heartbeat IPC: 1.65724 cumulative IPC: 1.69383 (Simulation time: 1 hr 22 min 1 sec) 
Heartbeat CPU 1 instructions: 100000002 cycles: 664578164 heartbeat IPC: 0.0751601 cumulative IPC: 0.0768774 (Simulation time: 1 hr 22 min 13 sec) 
Heartbeat CPU 0 instructions: 1140000001 cycles: 667242774 heartbeat IPC: 1.68037 cumulative IPC: 1.69371 (Simulation time: 1 hr 22 min 24 sec) 
Heartbeat CPU 0 instructions: 1150000003 cycles: 673453289 heartbeat IPC: 1.61017 cumulative IPC: 1.69291 (Simulation time: 1 hr 22 min 48 sec) 
Heartbeat CPU 0 instructions: 1160000002 cycles: 679769541 heartbeat IPC: 1.58322 cumulative IPC: 1.69185 (Simulation time: 1 hr 23 min 11 sec) 
Heartbeat CPU 0 instructions: 1170000001 cycles: 685814846 heartbeat IPC: 1.65418 cumulative IPC: 1.69151 (Simulation time: 1 hr 23 min 35 sec) 
Heartbeat CPU 0 instructions: 1180000003 cycles: 691781309 heartbeat IPC: 1.67604 cumulative IPC: 1.69137 (Simulation time: 1 hr 23 min 59 sec) 
Heartbeat CPU 0 instructions: 1190000002 cycles: 697735451 heartbeat IPC: 1.6795 cumulative IPC: 1.69127 (Simulation time: 1 hr 24 min 22 sec) 
Heartbeat CPU 0 instructions: 1200000002 cycles: 703690653 heartbeat IPC: 1.6792 cumulative IPC: 1.69116 (Simulation time: 1 hr 24 min 45 sec) 
Heartbeat CPU 0 instructions: 1210000000 cycles: 710268975 heartbeat IPC: 1.52014 cumulative IPC: 1.68952 (Simulation time: 1 hr 25 min 8 sec) 
Heartbeat CPU 0 instructions: 1220000003 cycles: 716258826 heartbeat IPC: 1.66949 cumulative IPC: 1.68935 (Simulation time: 1 hr 25 min 30 sec) 
Heartbeat CPU 0 instructions: 1230000001 cycles: 722806621 heartbeat IPC: 1.52723 cumulative IPC: 1.68783 (Simulation time: 1 hr 25 min 54 sec) 
Heartbeat CPU 0 instructions: 1240000000 cycles: 728997470 heartbeat IPC: 1.61529 cumulative IPC: 1.68719 (Simulation time: 1 hr 26 min 18 sec) 
Heartbeat CPU 0 instructions: 1250000003 cycles: 735432990 heartbeat IPC: 1.55388 cumulative IPC: 1.68599 (Simulation time: 1 hr 26 min 42 sec) 
Heartbeat CPU 0 instructions: 1260000001 cycles: 741082089 heartbeat IPC: 1.77019 cumulative IPC: 1.68665 (Simulation time: 1 hr 27 min 4 sec) 
Heartbeat CPU 0 instructions: 1270000003 cycles: 746851436 heartbeat IPC: 1.7333 cumulative IPC: 1.68702 (Simulation time: 1 hr 27 min 27 sec) 
Heartbeat CPU 0 instructions: 1280000001 cycles: 752693237 heartbeat IPC: 1.7118 cumulative IPC: 1.68722 (Simulation time: 1 hr 27 min 51 sec) 
Heartbeat CPU 0 instructions: 1290000000 cycles: 759052369 heartbeat IPC: 1.57254 cumulative IPC: 1.68623 (Simulation time: 1 hr 28 min 14 sec) 
Heartbeat CPU 0 instructions: 1300000003 cycles: 765057744 heartbeat IPC: 1.66518 cumulative IPC: 1.68606 (Simulation time: 1 hr 28 min 37 sec) 
Heartbeat CPU 0 instructions: 1310000001 cycles: 771145977 heartbeat IPC: 1.64251 cumulative IPC: 1.68571 (Simulation time: 1 hr 28 min 59 sec) 
Heartbeat CPU 0 instructions: 1320000000 cycles: 777114177 heartbeat IPC: 1.67555 cumulative IPC: 1.68563 (Simulation time: 1 hr 29 min 22 sec) 
Heartbeat CPU 0 instructions: 1330000002 cycles: 783201968 heartbeat IPC: 1.64263 cumulative IPC: 1.68528 (Simulation time: 1 hr 29 min 45 sec) 
Heartbeat CPU 0 instructions: 1340000002 cycles: 789193431 heartbeat IPC: 1.66904 cumulative IPC: 1.68515 (Simulation time: 1 hr 30 min 8 sec) 
Heartbeat CPU 0 instructions: 1350000000 cycles: 795170339 heartbeat IPC: 1.67311 cumulative IPC: 1.68506 (Simulation time: 1 hr 30 min 31 sec) 
Heartbeat CPU 1 instructions: 110000000 cycles: 799756968 heartbeat IPC: 0.0739761 cumulative IPC: 0.076372 (Simulation time: 1 hr 30 min 48 sec) 
Heartbeat CPU 0 instructions: 1360000003 cycles: 801089876 heartbeat IPC: 1.68932 cumulative IPC: 1.68509 (Simulation time: 1 hr 30 min 53 sec) 
Heartbeat CPU 0 instructions: 1370000001 cycles: 807019417 heartbeat IPC: 1.68647 cumulative IPC: 1.6851 (Simulation time: 1 hr 31 min 16 sec) 
Heartbeat CPU 0 instructions: 1380000001 cycles: 812989043 heartbeat IPC: 1.67515 cumulative IPC: 1.68503 (Simulation time: 1 hr 31 min 37 sec) 
Heartbeat CPU 0 instructions: 1390000000 cycles: 819012480 heartbeat IPC: 1.66018 cumulative IPC: 1.68484 (Simulation time: 1 hr 31 min 59 sec) 
Heartbeat CPU 0 instructions: 1400000002 cycles: 824996724 heartbeat IPC: 1.67106 cumulative IPC: 1.68474 (Simulation time: 1 hr 32 min 21 sec) 
Heartbeat CPU 0 instructions: 1410000000 cycles: 831018918 heartbeat IPC: 1.66052 cumulative IPC: 1.68456 (Simulation time: 1 hr 32 min 44 sec) 
Heartbeat CPU 0 instructions: 1420000003 cycles: 837012641 heartbeat IPC: 1.66841 cumulative IPC: 1.68444 (Simulation time: 1 hr 33 min 7 sec) 
Heartbeat CPU 0 instructions: 1430000000 cycles: 842919920 heartbeat IPC: 1.69283 cumulative IPC: 1.6845 (Simulation time: 1 hr 33 min 29 sec) 
Heartbeat CPU 0 instructions: 1440000000 cycles: 848827183 heartbeat IPC: 1.69283 cumulative IPC: 1.68456 (Simulation time: 1 hr 33 min 52 sec) 
Heartbeat CPU 0 instructions: 1450000001 cycles: 854833907 heartbeat IPC: 1.6648 cumulative IPC: 1.68441 (Simulation time: 1 hr 34 min 15 sec) 
Heartbeat CPU 0 instructions: 1460000000 cycles: 860747000 heartbeat IPC: 1.69116 cumulative IPC: 1.68446 (Simulation time: 1 hr 34 min 38 sec) 
Heartbeat CPU 0 instructions: 1470000001 cycles: 866735705 heartbeat IPC: 1.66981 cumulative IPC: 1.68436 (Simulation time: 1 hr 34 min 59 sec) 
Heartbeat CPU 0 instructions: 1480000002 cycles: 872714515 heartbeat IPC: 1.67257 cumulative IPC: 1.68427 (Simulation time: 1 hr 35 min 21 sec) 
Heartbeat CPU 0 instructions: 1490000002 cycles: 878702522 heartbeat IPC: 1.67 cumulative IPC: 1.68417 (Simulation time: 1 hr 35 min 44 sec) 
Heartbeat CPU 0 instructions: 1500000001 cycles: 884663817 heartbeat IPC: 1.67749 cumulative IPC: 1.68413 (Simulation time: 1 hr 36 min 7 sec) 
Heartbeat CPU 0 instructions: 1510000000 cycles: 890651827 heartbeat IPC: 1.67 cumulative IPC: 1.68403 (Simulation time: 1 hr 36 min 29 sec) 
Heartbeat CPU 0 instructions: 1520000003 cycles: 896588451 heartbeat IPC: 1.68446 cumulative IPC: 1.68403 (Simulation time: 1 hr 36 min 52 sec) 
Heartbeat CPU 0 instructions: 1530000003 cycles: 902456495 heartbeat IPC: 1.70415 cumulative IPC: 1.68417 (Simulation time: 1 hr 37 min 15 sec) 
Heartbeat CPU 0 instructions: 1540000000 cycles: 908306889 heartbeat IPC: 1.70929 cumulative IPC: 1.68433 (Simulation time: 1 hr 37 min 37 sec) 
Heartbeat CPU 0 instructions: 1550000000 cycles: 914162718 heartbeat IPC: 1.7077 cumulative IPC: 1.68449 (Simulation time: 1 hr 37 min 59 sec) 
Heartbeat CPU 0 instructions: 1560000003 cycles: 919994118 heartbeat IPC: 1.71485 cumulative IPC: 1.68469 (Simulation time: 1 hr 38 min 23 sec) 
Heartbeat CPU 0 instructions: 1570000003 cycles: 925823443 heartbeat IPC: 1.71546 cumulative IPC: 1.68488 (Simulation time: 1 hr 38 min 46 sec) 
Heartbeat CPU 0 instructions: 1580000002 cycles: 931743130 heartbeat IPC: 1.68928 cumulative IPC: 1.68491 (Simulation time: 1 hr 39 min 8 sec) 
Heartbeat CPU 0 instructions: 1590000001 cycles: 937644439 heartbeat IPC: 1.69454 cumulative IPC: 1.68498 (Simulation time: 1 hr 39 min 30 sec) 
Heartbeat CPU 0 instructions: 1600000000 cycles: 943597041 heartbeat IPC: 1.67994 cumulative IPC: 1.68494 (Simulation time: 1 hr 39 min 52 sec) 
